76
000 
C 17.4010000   23.8000000   25.9210000  
C 16.0170000   24.2850000   26.1910000  
C 14.9270000   23.5330000   25.8280000  
C 15.0870000   22.3270000   25.1200000  
C 16.2900000   21.8750000   24.6000000  
C 17.5790000   22.5800000   24.9640000  
C 13.5760000   23.6400000   26.1180000  
C 12.8810000   22.5600000   25.6940000  
N 13.7850000   21.8030000   24.9780000  
O 10.8140000   23.0080000   26.8770000  
C 11.4840000   22.1870000   26.0260000  
O 11.0150000   21.0950000   25.5460000  
O 18.6870000   22.1870000   24.5770000  
O 18.3930000   24.4070000   26.2740000  
H 15.8260000   25.2390000   26.7060000  
H 13.2860000   24.4560000   26.7560000  
H 11.3970000   23.7150000   26.9910000  
H 13.5430000   20.9020000   24.5520000  
C 16.2540000   20.6680000   23.8090000  
C 15.5920000   20.7150000   22.5880000  
C 15.3310000   19.5420000   21.9950000  
C 15.6380000   18.2950000   22.4580000  
C 16.3920000   18.2410000   23.6530000  
C 16.6270000   19.4200000   24.4140000  
C 15.1890000   21.7360000   21.6290000  
C 14.6930000   21.0260000   20.5310000  
N 14.8840000   19.6760000   20.7130000  
O 13.6620000   22.9280000   19.4180000  
C 13.8470000   21.6380000   19.4220000  
O 13.4480000   20.9500000   18.5270000  
O 16.8020000   17.0670000   24.1210000  
O 17.1840000   19.3910000   25.6400000  
H 15.1190000   22.7980000   21.7710000  
H 14.1420000   23.2470000   20.1410000  
H 14.7690000   18.9370000   20.0190000  
H 16.1670000   16.3470000   23.9190000  
H 17.1720000   18.4530000   25.9830000  
C 15.5340000   17.0490000   21.6070000  
C 16.4940000   16.8270000   20.6260000  
C 16.3820000   15.7370000   19.7380000  
C 15.4050000   14.6940000   19.9490000  
C 14.4620000   14.9250000   20.9950000  
C 14.5120000   16.1030000   21.7540000  
C 17.7270000   17.5650000   20.1590000  
C 18.2440000   16.8090000   19.0790000  
N 17.4360000   15.6610000   18.8530000  
O 20.0270000   18.3890000   18.6210000  
C 19.4280000   17.1850000   18.2330000  
O 19.7540000   16.5200000   17.2910000  
O 13.5330000   13.9890000   21.1790000  
O 13.4700000   16.3240000   22.6240000  
H 18.1410000   18.4710000   20.6200000  
H 19.5220000   18.5690000   19.4910000  
H 17.6540000   14.9040000   18.2670000  
H 13.5170000   13.3730000   20.4660000  
H 12.9120000   15.5640000   22.5870000  
C 15.3640000   13.5810000   18.9820000  
C 15.7990000   12.2370000   19.3460000  
C 15.8830000   11.2360000   18.4060000  
C 15.4180000   11.3970000   17.1450000  
C 15.0780000   12.6850000   16.7460000  
C 15.0740000   13.7580000   17.6270000  
C 16.0400000   11.6520000   20.6750000  
C 16.2290000   10.3080000   20.4120000  
N 16.0890000   10.0420000   19.0720000  
O 16.6720000    9.6030000   22.6040000  
C 16.4050000    9.2640000   21.3600000  
O 16.3250000    8.1110000   21.0250000  
O 14.4720000   12.8500000   15.5760000  
O 14.5150000   14.9270000   17.2280000  
H 16.0320000   12.0830000   21.6530000  
H 16.5870000   10.5450000   22.6220000  
H 16.0690000    9.1680000   18.6480000  
H 14.2350000   13.8090000   15.4690000  
H 14.8210000   15.5340000   17.9170000  
H 15.2450000   10.5690000   16.5140000  
