76
000 
C 16.4980000   10.2480000   23.5270000  
C 15.9830000    9.5440000   22.2610000  
C 15.4310000   10.2580000   21.2370000  
C 15.3650000   11.6740000   21.2710000  
C 15.7850000   12.4160000   22.2560000  
C 16.3780000   11.7840000   23.5000000  
C 14.9970000    9.8550000   19.9480000  
C 14.5210000   11.0040000   19.2370000  
N 14.8130000   12.0580000   20.1100000  
O 13.9680000    9.9630000   17.1810000  
C 14.0100000   11.1200000   17.8440000  
O 13.5960000   12.1580000   17.3360000  
O 16.5810000   12.4730000   24.5000000  
O 16.9730000    9.6370000   24.4780000  
H 16.1400000    8.4970000   22.1830000  
H 15.1350000    8.9250000   19.5050000  
H 14.2470000    9.2560000   17.7710000  
H 14.6280000   13.0310000   19.8530000  
C 15.7620000   13.8490000   22.0360000  
C 14.9250000   14.7130000   22.7770000  
C 14.8590000   16.0450000   22.5430000  
C 15.6810000   16.7720000   21.6280000  
C 16.6250000   15.8960000   20.8860000  
C 16.6450000   14.4660000   21.1180000  
C 13.9130000   14.3920000   23.8190000  
C 13.3940000   15.6520000   24.2350000  
N 14.0120000   16.6930000   23.4510000  
O 11.9400000   14.9350000   26.0280000  
C 12.5020000   15.9820000   25.3710000  
O 12.1520000   17.1230000   25.6440000  
O 17.4510000   16.4800000   19.9530000  
O 17.7510000   13.6880000   20.7070000  
H 13.7730000   13.3790000   24.3160000  
H 12.3450000   14.0740000   25.6690000  
H 13.7700000   17.7020000   23.3490000  
H 17.1050000   17.3530000   19.6370000  
H 18.1660000   14.1350000   19.9550000  
C 15.7060000   18.2580000   21.5370000  
C 16.7440000   19.0970000   22.1510000  
C 16.5690000   20.4510000   22.1160000  
C 15.4340000   21.1840000   21.7030000  
C 14.3770000   20.3280000   21.2870000  
C 14.5000000   18.9600000   21.1250000  
C 17.8300000   18.8680000   23.0130000  
C 18.3580000   20.1060000   23.4710000  
N 17.5340000   21.0680000   22.8640000  
O 20.1850000   19.2960000   24.8520000  
C 19.4040000   20.3260000   24.5220000  
O 19.4140000   21.3000000   25.1970000  
O 13.2030000   20.8940000   20.8800000  
O 13.4130000   18.2670000   20.6870000  
H 18.1410000   17.8120000   23.3110000  
H 19.8860000   18.5430000   24.3410000  
H 17.4610000   22.0340000   23.2330000  
H 13.3040000   21.8800000   20.8150000  
H 12.7530000   18.9110000   20.4840000  
C 15.4920000   22.6940000   21.7100000  
C 15.5890000   23.3850000   20.4980000  
C 15.8260000   24.7510000   20.4350000  
C 16.0000000   25.5310000   21.5600000  
C 15.7650000   24.9260000   22.7840000  
C 15.5460000   23.5220000   22.8600000  
C 15.5570000   23.0080000   19.1330000  
C 15.7540000   24.1120000   18.3030000  
N 16.0170000   25.2120000   19.1170000  
O 15.3630000   22.8850000   16.2780000  
C 15.6860000   24.1010000   16.8620000  
O 15.9170000   25.1030000   16.2300000  
O 15.7880000   25.7340000   23.9370000  
O 15.3410000   22.9530000   24.0890000  
H 15.3190000   21.9830000   18.8930000  
H 15.4700000   22.2550000   17.0750000  
H 16.0730000   26.2320000   18.8670000  
H 15.0630000   25.3850000   24.5830000  
H 14.8160000   22.0870000   23.9550000  
H 16.2610000   26.6140000   21.5040000  
