76
000 
C 19.2370000   22.9910000   17.3790000  
C 18.1800000   23.9740000   17.3180000  
C 17.0200000   23.7920000   18.0600000  
C 16.8980000   22.7950000   19.1150000  
C 17.8610000   21.8400000   19.2890000  
C 19.1630000   21.8970000   18.5850000  
C 15.7860000   24.4620000   18.0800000  
C 14.9150000   23.8270000   19.0170000  
N 15.6610000   22.8530000   19.6250000  
O 13.0480000   24.7730000   18.2410000  
C 13.4580000   24.0240000   19.2630000  
O 12.7530000   23.5150000   20.0930000  
O 20.0690000   21.0810000   18.7850000  
O 20.0790000   22.9130000   16.4960000  
H 18.2760000   24.6170000   16.4960000  
H 15.5070000   25.3080000   17.4410000  
H 13.8480000   25.0210000   17.6930000  
H 15.3790000   22.2070000   20.3330000  
C 17.4440000   20.7790000   20.1540000  
C 16.7990000   19.6640000   19.5740000  
C 16.2630000   18.6430000   20.3190000  
C 16.2960000   18.5900000   21.7150000  
C 16.9880000   19.6400000   22.3670000  
C 17.4710000   20.7320000   21.5810000  
C 16.5420000   19.4510000   18.2360000  
C 15.9310000   18.1550000   18.1720000  
N 15.6530000   17.7230000   19.5060000  
O 16.0660000   17.9520000   15.7990000  
C 15.6520000   17.3720000   16.9380000  
O 15.0670000   16.2740000   16.9050000  
O 16.9810000   19.6780000   23.7640000  
O 18.0110000   21.7790000   22.2980000  
H 16.8070000   20.0850000   17.3860000  
H 16.5160000   18.7590000   16.0970000  
H 15.3290000   16.7750000   19.8030000  
H 16.8560000   18.7950000   24.0980000  
H 18.4730000   21.3700000   23.0890000  
C 15.6720000   17.4950000   22.4490000  
C 16.2710000   16.2350000   22.4060000  
C 15.5600000   15.1580000   22.8580000  
C 14.2660000   15.1120000   23.4340000  
C 13.7350000   16.4520000   23.5830000  
C 14.3470000   17.5900000   22.9960000  
C 17.5470000   15.7610000   21.9190000  
C 17.4630000   14.3920000   21.9990000  
N 16.2720000   14.0130000   22.6550000  
O 19.3570000   13.7140000   20.7890000  
C 18.4410000   13.3150000   21.6010000  
O 18.5490000   12.1220000   21.9810000  
O 12.4990000   16.6680000   24.1900000  
O 13.7080000   18.7940000   23.0440000  
H 18.3620000   16.3010000   21.5100000  
H 19.1310000   14.6350000   20.5170000  
H 15.9140000   13.0940000   22.7960000  
H 12.0070000   15.8720000   24.2040000  
H 14.3040000   19.4930000   22.7860000  
C 13.5520000   13.9070000   23.9680000  
C 13.4730000   13.5710000   25.3710000  
C 13.1210000   12.3320000   25.8150000  
C 12.5840000   11.4230000   24.9360000  
C 12.5520000   11.7070000   23.5690000  
C 13.0160000   12.9880000   23.0400000  
C 13.8280000   14.3580000   26.5480000  
C 13.7590000   13.5320000   27.6410000  
N 13.2490000   12.3290000   27.1980000  
O 14.3190000   15.0730000   29.4450000  
C 13.9680000   13.8310000   29.1020000  
O 13.7360000   12.9690000   29.9520000  
O 12.1780000   10.6590000   22.7000000  
O 12.9460000   13.2650000   21.7030000  
H 14.2020000   15.3640000   26.6300000  
H 14.4080000   15.5510000   28.6220000  
H 12.7670000   11.6040000   27.6550000  
H 12.6190000   10.7410000   21.8200000  
H 13.3660000   14.1340000   21.6210000  
H 12.3590000   10.4420000   25.1910000  
