76
000 
C 19.2910000   23.9660000   19.6140000  
C 18.2060000   24.9320000   19.3810000  
C 16.9120000   24.5580000   19.6600000  
C 16.6070000   23.3140000   20.0890000  
C 17.5140000   22.2600000   20.2900000  
C 18.9780000   22.5480000   20.1890000  
C 15.6870000   25.1950000   19.3870000  
C 14.6500000   24.3380000   19.7480000  
N 15.2700000   23.1920000   20.2090000  
O 12.9330000   25.7090000   18.8490000  
C 13.2190000   24.6210000   19.5660000  
O 12.3270000   23.8660000   19.9850000  
O 19.8860000   21.7980000   20.4680000  
O 20.4480000   24.2990000   19.4070000  
H 18.4980000   25.8590000   18.9070000  
H 15.5200000   26.1180000   18.8110000  
H 13.8290000   26.0150000   18.5340000  
H 14.7670000   22.4510000   20.6490000  
C 16.9950000   20.9890000   20.7570000  
C 16.2190000   20.1860000   19.8590000  
C 15.7170000   18.9950000   20.2270000  
C 15.9980000   18.3490000   21.4610000  
C 16.8360000   19.1280000   22.3010000  
C 17.4050000   20.3780000   21.9740000  
C 15.5060000   20.5280000   18.6090000  
C 14.6230000   19.4800000   18.3840000  
N 14.7350000   18.6200000   19.3850000  
O 13.8370000   20.2860000   16.4160000  
C 13.8490000   19.2470000   17.1940000  
O 13.3010000   18.2110000   16.9110000  
O 17.1370000   18.6880000   23.5560000  
O 18.1940000   21.0280000   22.8930000  
H 15.6550000   21.3460000   17.9340000  
H 14.5070000   20.8720000   16.7510000  
H 14.2710000   17.6960000   19.4050000  
H 17.0320000   17.7090000   23.5650000  
H 18.5980000   20.3390000   23.4800000  
C 15.3110000   17.0460000   21.8380000  
C 16.0940000   15.8970000   21.9060000  
C 15.5510000   14.7120000   22.3150000  
C 14.2570000   14.5910000   22.7940000  
C 13.3620000   15.6660000   22.5720000  
C 13.9160000   16.8900000   22.1360000  
C 17.4780000   15.6950000   21.6040000  
C 17.6680000   14.4180000   21.9930000  
N 16.5100000   13.8140000   22.5600000  
O 20.0270000   14.3920000   21.4480000  
C 18.9440000   13.6330000   21.8100000  
O 19.1070000   12.4640000   22.0610000  
O 12.0470000   15.5740000   22.9080000  
O 13.0460000   17.9650000   22.1420000  
H 18.1250000   16.3160000   20.9270000  
H 19.6370000   15.3180000   21.5250000  
H 16.3830000   12.8420000   22.9470000  
H 11.9340000   14.8250000   23.5170000  
H 12.2040000   17.5230000   22.3480000  
C 13.7630000   13.2310000   23.2200000  
C 14.2940000   12.6560000   24.3990000  
C 13.9480000   11.4050000   24.8960000  
C 12.9390000   10.7180000   24.2910000  
C 12.3130000   11.2510000   23.1230000  
C 12.6800000   12.5510000   22.6270000  
C 15.3420000   13.1340000   25.2840000  
C 15.5160000   12.1530000   26.2490000  
N 14.6200000   11.1040000   26.0250000  
O 17.5190000   13.1230000   27.1620000  
C 16.5710000   12.1190000   27.3280000  
O 16.6570000   11.3540000   28.2290000  
O 11.3100000   10.5460000   22.5330000  
O 12.0600000   13.0340000   21.4870000  
H 15.8770000   14.0790000   25.2640000  
H 17.4030000   13.4070000   26.2630000  
H 14.6980000   10.1700000   26.4250000  
H 11.0670000   11.0040000   21.7180000  
H 12.6930000   13.5790000   21.0450000  
H 12.8030000    9.7040000   24.5590000  
