76
000 
C 15.7770000   16.8500000   29.2470000  
C 14.5140000   16.1990000   29.5530000  
C 13.6700000   15.8170000   28.5470000  
C 14.0330000   15.9240000   27.1700000  
C 15.1300000   16.5690000   26.6980000  
C 16.0680000   17.1310000   27.7380000  
C 12.4340000   15.0770000   28.5310000  
C 12.0140000   14.9260000   27.2300000  
N 13.0270000   15.4210000   26.4260000  
O  9.9480000   13.9610000   27.8930000  
C 10.6690000   14.4460000   26.8440000  
O 10.2750000   14.5150000   25.7170000  
O 17.0430000   17.8100000   27.3540000  
O 16.5110000   17.1710000   30.1380000  
H 14.1620000   16.1880000   30.6200000  
H 11.9590000   14.7330000   29.4990000  
H 10.4860000   14.2320000   28.6460000  
H 13.0660000   15.3940000   25.3980000  
C 15.3370000   16.7290000   25.2460000  
C 14.7790000   17.8110000   24.6630000  
C 14.9500000   18.1310000   23.3550000  
C 15.6320000   17.3090000   22.4130000  
C 16.3310000   16.2130000   23.0040000  
C 16.1320000   15.8970000   24.4140000  
C 13.6930000   18.7010000   25.1890000  
C 13.2720000   19.4920000   24.1250000  
N 14.0950000   19.1540000   22.9840000  
O 11.5550000   20.7160000   25.2300000  
C 12.1160000   20.3370000   24.0330000  
O 11.6810000   20.7590000   22.9890000  
O 17.1150000   15.3370000   22.3370000  
O 16.7800000   14.8660000   25.0290000  
H 13.3430000   18.6740000   26.2300000  
H 11.9760000   20.2920000   25.9270000  
H 14.0150000   19.6010000   22.0840000  
H 17.0560000   15.5990000   21.3930000  
H 17.1670000   14.3860000   24.3170000  
C 15.8100000   17.6320000   20.9350000  
C 16.8900000   18.3300000   20.5360000  
C 17.0460000   18.7260000   19.2090000  
C 16.1490000   18.4760000   18.1820000  
C 14.8840000   17.9790000   18.6080000  
C 14.7280000   17.5940000   19.9680000  
C 18.0030000   18.9560000   21.2500000  
C 18.8920000   19.4900000   20.3870000  
N 18.2870000   19.4090000   19.0400000  
O 20.4760000   20.4620000   21.8730000  
C 20.2060000   20.1110000   20.6550000  
O 21.0120000   20.2390000   19.7430000  
O 13.8190000   17.8520000   17.7570000  
O 13.4890000   17.1620000   20.3440000  
H 18.1510000   19.0130000   22.3110000  
H 19.5450000   20.4260000   22.2320000  
H 18.7730000   19.4920000   18.1720000  
H 14.2500000   17.7930000   16.8920000  
H 12.7710000   17.7150000   19.8760000  
C 16.4430000   18.9450000   16.8040000  
C 17.0180000   18.0700000   15.8970000  
C 17.3580000   18.4450000   14.6490000  
C 17.1740000   19.7310000   14.1790000  
C 16.6120000   20.6480000   15.0940000  
C 16.2050000   20.2280000   16.3640000  
C 17.3490000   16.6560000   16.0690000  
C 17.7920000   16.2410000   14.8260000  
N 17.7370000   17.3140000   13.9400000  
O 18.2900000   13.8980000   15.2750000  
C 18.1400000   14.8670000   14.3680000  
O 18.3270000   14.5630000   13.2110000  
O 16.4850000   21.9670000   14.7860000  
O 15.7310000   21.1810000   17.1850000  
H 17.3420000   16.0570000   16.9990000  
H 18.2090000   14.3890000   16.0920000  
H 17.8090000   17.2130000   12.9480000  
H 15.9900000   22.3250000   15.6040000  
H 15.5000000   20.7680000   18.0060000  
H 17.4810000   20.1070000   13.1510000  
