76
000 
C 19.9040000   21.4030000   16.5200000  
C 18.9720000   22.3200000   15.8910000  
C 17.6580000   22.3120000   16.2750000  
C 17.1410000   21.3960000   17.1470000  
C 17.9000000   20.4180000   17.8360000  
C 19.3110000   20.3690000   17.5980000  
C 16.6500000   23.3200000   16.1520000  
C 15.5330000   23.0210000   16.9220000  
N 15.9080000   21.7920000   17.5440000  
O 14.2710000   24.9340000   16.4520000  
C 14.3090000   23.8110000   17.1470000  
O 13.3370000   23.4890000   17.8490000  
O 20.0950000   19.6280000   18.1600000  
O 21.0430000   21.2530000   16.1280000  
H 19.4400000   23.1040000   15.3610000  
H 16.9300000   24.1990000   15.5680000  
H 15.0850000   24.9860000   15.8600000  
H 15.3830000   21.2960000   18.3220000  
C 17.2480000   19.7540000   18.9250000  
C 16.8970000   18.3740000   18.8630000  
C 16.2950000   17.7010000   19.9050000  
C 15.9780000   18.2990000   21.1490000  
C 16.3900000   19.6130000   21.2080000  
C 17.0030000   20.3600000   20.1530000  
C 17.0800000   17.4360000   17.8200000  
C 16.4330000   16.2290000   18.2530000  
N 15.9970000   16.4050000   19.6000000  
O 16.5170000   15.2390000   16.1270000  
C 16.2390000   15.0690000   17.4130000  
O 15.7690000   13.9530000   17.7240000  
O 16.3170000   20.2330000   22.4480000  
O 17.4580000   21.6650000   20.4010000  
H 17.6730000   17.4960000   16.9170000  
H 16.7930000   16.1840000   16.0910000  
H 15.7120000   15.6720000   20.2810000  
H 15.5760000   19.7900000   22.9330000  
H 17.2050000   21.8710000   21.2880000  
C 15.3540000   17.5000000   22.3050000  
C 15.9250000   16.2610000   22.8110000  
C 15.2820000   15.5270000   23.7580000  
C 13.9750000   15.8420000   24.1760000  
C 13.3230000   16.9860000   23.7110000  
C 14.0560000   17.8500000   22.8530000  
C 17.1710000   15.5720000   22.5010000  
C 17.1470000   14.3290000   23.1570000  
N 15.9870000   14.2960000   24.0220000  
O 19.0890000   13.6510000   22.0210000  
C 18.2090000   13.3480000   23.0080000  
O 18.2670000   12.4480000   23.7910000  
O 12.1210000   17.4410000   24.1940000  
O 13.4350000   18.9450000   22.4280000  
H 17.9180000   16.0110000   21.9150000  
H 18.6780000   14.3610000   21.4900000  
H 15.7830000   13.5690000   24.7320000  
H 11.5120000   16.7710000   24.6030000  
H 13.7560000   19.1460000   21.4920000  
C 13.2500000   14.9980000   25.1120000  
C 13.5290000   15.0540000   26.5190000  
C 12.7110000   14.4120000   27.4300000  
C 11.5940000   13.6420000   27.0470000  
C 11.2570000   13.6330000   25.6580000  
C 12.1080000   14.2600000   24.7350000  
C 14.3580000   15.8880000   27.3850000  
C 14.0720000   15.7050000   28.7160000  
N 13.1630000   14.6250000   28.6910000  
O 15.7190000   17.0230000   29.7260000  
C 14.6160000   16.2790000   29.9280000  
O 14.1550000   16.1190000   31.0280000  
O 10.0830000   13.1460000   25.2520000  
O 11.7300000   14.3150000   23.4100000  
H 15.0570000   16.6450000   27.0590000  
H 15.8880000   16.9120000   28.7720000  
H 12.9980000   14.1470000   29.5920000  
H 10.0320000   13.3690000   24.3070000  
H 12.5120000   14.5610000   22.8640000  
H 11.0300000   13.1620000   27.7650000  
