76
000 
C 17.1970000   23.4570000   26.1050000  
C 15.9240000   23.8350000   26.8880000  
C 14.7270000   23.2620000   26.5670000  
C 14.6770000   22.2800000   25.5640000  
C 15.7410000   21.7630000   24.8270000  
C 17.1110000   22.2680000   25.0560000  
C 13.4000000   23.4630000   27.0810000  
C 12.5450000   22.6350000   26.3690000  
N 13.3450000   21.9510000   25.4780000  
O 10.5590000   23.0900000   27.5570000  
C 11.1000000   22.4380000   26.5770000  
O 10.5260000   21.5930000   25.9910000  
O 18.0670000   21.8430000   24.3530000  
O 18.2520000   23.9470000   26.3670000  
H 16.0150000   24.5720000   27.6750000  
H 13.1340000   24.1610000   27.8340000  
H 11.1640000   23.8120000   27.7910000  
H 12.9900000   21.1430000   24.8830000  
C 15.5390000   20.5540000   24.0480000  
C 15.3770000   20.6110000   22.6380000  
C 15.1540000   19.4640000   21.9290000  
C 15.1750000   18.1610000   22.3840000  
C 15.3090000   18.0580000   23.7740000  
C 15.5760000   19.2300000   24.5790000  
C 15.4000000   21.6520000   21.6330000  
C 15.1550000   21.0470000   20.4390000  
N 15.0050000   19.6630000   20.6230000  
O 15.3630000   22.9510000   18.9960000  
C 15.0540000   21.6500000   19.1040000  
O 14.7340000   21.0500000   18.0750000  
O 15.3020000   16.8620000   24.4430000  
O 15.7750000   18.9790000   25.9320000  
H 15.5530000   22.7160000   21.8100000  
H 15.7250000   23.1150000   19.8110000  
H 14.9560000   18.9170000   19.9730000  
H 14.6610000   16.3700000   24.0630000  
H 15.2100000   18.2710000   26.3300000  
C 15.2550000   16.9650000   21.3990000  
C 16.2330000   16.8590000   20.4120000  
C 16.2800000   15.7710000   19.5980000  
C 15.3620000   14.6750000   19.6390000  
C 14.3480000   14.7980000   20.6250000  
C 14.3030000   15.8770000   21.4670000  
C 17.3150000   17.7320000   20.0840000  
C 18.0070000   17.1340000   19.0480000  
N 17.3270000   15.9350000   18.7420000  
O 19.7670000   18.7110000   18.8670000  
C 19.2420000   17.6400000   18.3100000  
O 19.6800000   17.1150000   17.2790000  
O 13.4930000   13.7580000   20.8360000  
O 13.2700000   15.8950000   22.3930000  
H 17.5130000   18.7320000   20.5300000  
H 18.9720000   19.0260000   19.3950000  
H 17.4550000   15.4450000   17.8200000  
H 13.7800000   13.0810000   20.1410000  
H 12.5370000   15.4040000   22.0410000  
C 15.4410000   13.4880000   18.7180000  
C 16.0660000   12.2960000   19.1260000  
C 16.1970000   11.2470000   18.2140000  
C 15.7240000   11.3040000   16.9120000  
C 15.1650000   12.5360000   16.4170000  
C 14.9870000   13.5810000   17.3410000  
C 16.6230000   11.8890000   20.4210000  
C 17.1650000   10.5860000   20.1860000  
N 16.9410000   10.2750000   18.8570000  
O 17.9850000   10.1050000   22.4350000  
C 17.8760000    9.7430000   21.1500000  
O 18.4300000    8.7070000   20.7780000  
O 14.7470000   12.6640000   15.1570000  
O 14.3990000   14.7650000   16.9250000  
H 16.5370000   12.2900000   21.4000000  
H 17.5540000   10.9590000   22.6130000  
H 17.1740000    9.3600000   18.5010000  
H 14.4770000   13.6350000   15.1700000  
H 14.1830000   15.2860000   17.6840000  
H 15.8820000   10.4160000   16.3010000  
