76
000 
C 16.5930000   18.6270000   28.8320000  
C 15.2940000   18.8270000   29.5210000  
C 14.1580000   18.6370000   28.8120000  
C 14.1560000   18.3020000   27.4590000  
C 15.2520000   18.0670000   26.6510000  
C 16.5900000   18.2400000   27.2960000  
C 12.7790000   18.7440000   29.2640000  
C 11.9740000   18.3930000   28.1620000  
N 12.8380000   18.1430000   27.1810000  
O  9.9240000   18.7900000   29.2040000  
C 10.4880000   18.3420000   28.0770000  
O  9.8150000   18.1040000   27.1160000  
O 17.6630000   18.1140000   26.7010000  
O 17.6540000   18.9620000   29.3740000  
H 15.2860000   19.0130000   30.5750000  
H 12.4840000   19.0000000   30.3410000  
H 10.6620000   18.8100000   29.8380000  
H 12.4310000   18.1800000   26.2530000  
C 15.0800000   17.6880000   25.2530000  
C 14.7960000   18.7420000   24.3380000  
C 14.6120000   18.5770000   22.9960000  
C 14.8290000   17.3780000   22.3680000  
C 15.0680000   16.2690000   23.1980000  
C 15.2650000   16.4070000   24.6290000  
C 14.4580000   20.1770000   24.5530000  
C 14.4120000   20.7160000   23.2410000  
N 14.4300000   19.7120000   22.3170000  
O 14.1140000   22.9500000   23.8200000  
C 14.1060000   22.0590000   22.8450000  
O 13.7320000   22.3160000   21.6940000  
O 15.4270000   15.1170000   22.5430000  
O 15.7040000   15.3480000   25.3720000  
H 14.5190000   20.7020000   25.4980000  
H 14.6100000   22.4900000   24.4810000  
H 14.4950000   19.8340000   21.2930000  
H 15.1520000   15.1820000   21.5910000  
H 15.6750000   14.6380000   24.6920000  
C 14.9860000   17.1650000   20.8850000  
C 15.9460000   17.9700000   20.2540000  
C 16.2590000   17.6690000   18.9780000  
C 15.5660000   16.8090000   18.1090000  
C 14.4900000   16.1080000   18.7130000  
C 14.1740000   16.2880000   20.0910000  
C 17.1010000   18.7220000   20.7110000  
C 17.9500000   18.8540000   19.6420000  
N 17.4720000   18.1710000   18.5090000  
O 19.2690000   20.2290000   20.8730000  
C 19.2460000   19.5130000   19.7940000  
O 20.1770000   19.2590000   19.0360000  
O 13.8100000   15.2010000   17.9070000  
O 13.0980000   15.6130000   20.6210000  
H 17.2850000   19.1310000   21.7180000  
H 18.3070000   20.2640000   21.1970000  
H 17.9650000   18.0230000   17.6320000  
H 14.2720000   15.2150000   17.0170000  
H 12.6330000   15.2830000   19.9100000  
C 15.9420000   16.6310000   16.6920000  
C 16.9770000   15.7500000   16.2850000  
C 17.4040000   15.7010000   14.9900000  
C 16.8840000   16.5230000   13.9920000  
C 15.7940000   17.3860000   14.3650000  
C 15.2690000   17.4320000   15.6550000  
C 17.8460000   14.8100000   17.0190000  
C 18.8080000   14.3140000   16.1060000  
N 18.4480000   14.7820000   14.8310000  
O 20.0640000   12.8830000   17.4910000  
C 19.9110000   13.4360000   16.3130000  
O 20.6700000   13.1930000   15.3590000  
O 15.3600000   18.2440000   13.4360000  
O 14.1990000   18.2820000   15.8800000  
H 17.7500000   14.7250000   18.1210000  
H 19.3640000   13.2060000   18.1080000  
H 18.9330000   14.5470000   13.9740000  
H 14.5730000   18.7870000   13.6960000  
H 13.9330000   18.2820000   16.8310000  
H 17.3320000   16.5580000   12.9730000  
