76
000 
C 15.8810000   11.3400000   26.2060000  
C 15.4500000   10.3620000   25.1640000  
C 15.2220000   10.7580000   23.8640000  
C 15.3040000   12.0930000   23.4480000  
C 15.5760000   13.0910000   24.2890000  
C 15.9290000   12.8880000   25.7310000  
C 15.0190000    9.9590000   22.6310000  
C 14.7700000   10.8450000   21.6410000  
N 15.1230000   12.0980000   22.0870000  
O 14.0050000    9.2250000   20.1590000  
C 14.3390000   10.4690000   20.2920000  
O 14.1600000   11.2600000   19.3950000  
O 16.1320000   13.7800000   26.5210000  
O 16.3050000   10.9590000   27.2370000  
H 15.6080000    9.3470000   25.4650000  
H 14.8160000    8.9210000   22.5760000  
H 14.3670000    8.7840000   20.9460000  
H 15.3770000   12.9170000   21.5040000  
C 15.7210000   14.3930000   23.6740000  
C 14.5690000   15.2630000   23.5590000  
C 14.6160000   16.4370000   22.8840000  
C 15.7860000   16.8870000   22.2000000  
C 16.8870000   16.0080000   22.2500000  
C 16.8650000   14.7780000   22.9420000  
C 13.2050000   15.2460000   24.1100000  
C 12.5960000   16.4790000   23.7520000  
N 13.4600000   17.2280000   22.9520000  
O 10.4540000   16.0610000   24.6920000  
C 11.1900000   16.9320000   23.9970000  
O 10.7950000   17.9380000   23.6040000  
O 17.9970000   16.3240000   21.6060000  
O 17.9940000   14.0510000   22.9350000  
H 12.7670000   14.4080000   24.6220000  
H 10.9070000   15.2690000   24.9700000  
H 13.5230000   18.1120000   22.5390000  
H 17.9790000   17.2710000   21.3070000  
H 18.6230000   14.7400000   22.6460000  
C 15.8720000   18.2590000   21.5810000  
C 16.6540000   19.2930000   22.2160000  
C 16.6460000   20.5780000   21.7270000  
C 15.8880000   20.9880000   20.6150000  
C 15.1110000   20.0160000   20.0100000  
C 15.0850000   18.6390000   20.4690000  
C 17.6280000   19.3100000   23.2270000  
C 18.0920000   20.6380000   23.4490000  
N 17.4940000   21.3950000   22.4470000  
O 19.5520000   20.1180000   25.3450000  
C 19.0610000   21.0740000   24.4790000  
O 19.4270000   22.2150000   24.5560000  
O 14.3280000   20.3180000   18.9050000  
O 14.3790000   17.7530000   19.7980000  
H 17.8500000   18.4360000   23.9130000  
H 19.0520000   19.2810000   25.3110000  
H 17.4860000   22.3930000   22.4430000  
H 14.3420000   21.3410000   18.7380000  
H 13.9050000   18.2210000   19.0170000  
C 15.9790000   22.3660000   19.9850000  
C 16.2410000   22.4880000   18.5750000  
C 16.0460000   23.7640000   17.9900000  
C 15.6690000   24.9350000   18.6330000  
C 15.3580000   24.8310000   20.0350000  
C 15.4560000   23.5450000   20.6580000  
C 16.5720000   21.5370000   17.4750000  
C 16.5270000   22.3040000   16.2860000  
N 16.3590000   23.6360000   16.6710000  
O 16.9910000   20.5420000   14.7590000  
C 16.5790000   21.8090000   14.8730000  
O 16.4160000   22.5800000   13.9350000  
O 14.9580000   25.9640000   20.7180000  
O 15.0200000   23.4720000   21.9210000  
H 16.6050000   20.4220000   17.5300000  
H 17.1480000   20.2580000   15.6960000  
H 16.3470000   24.3100000   15.9360000  
H 14.7020000   25.6090000   21.6010000  
H 14.2790000   22.9210000   21.9310000  
H 15.5550000   25.9060000   18.0690000  
