76
000 
C 16.2180000   19.4240000   28.9350000  
C 14.9950000   18.7710000   29.5250000  
C 14.2750000   17.9600000   28.7000000  
C 14.4950000   17.7670000   27.3940000  
C 15.4830000   18.3910000   26.6610000  
C 16.4910000   19.2830000   27.3690000  
C 13.0830000   17.2560000   29.0450000  
C 12.5800000   16.7510000   27.8700000  
N 13.4800000   17.0110000   26.8710000  
O 10.6000000   15.9380000   28.7560000  
C 11.3380000   15.9860000   27.6520000  
O 11.0290000   15.4090000   26.5950000  
O 17.3440000   19.9230000   26.6710000  
O 17.0430000   20.1090000   29.5680000  
H 14.7740000   18.9780000   30.5510000  
H 12.7450000   17.1450000   30.0810000  
H 11.0450000   16.5000000   29.3880000  
H 13.4820000   16.5830000   25.8880000  
C 15.4820000   18.1110000   25.2410000  
C 14.9990000   19.0530000   24.3650000  
C 14.9440000   18.8650000   23.0500000  
C 15.4390000   17.6560000   22.4810000  
C 15.8770000   16.6790000   23.3640000  
C 15.8860000   16.8720000   24.7880000  
C 14.4580000   20.3540000   24.5850000  
C 14.1420000   20.9090000   23.3630000  
N 14.5430000   20.0230000   22.3830000  
O 13.3760000   23.0610000   24.2480000  
C 13.5200000   22.2530000   23.1360000  
O 13.1410000   22.6530000   22.0470000  
O 16.3110000   15.5200000   22.8110000  
O 16.4210000   15.9190000   25.6700000  
H 14.3560000   20.8730000   25.5000000  
H 13.6640000   22.4780000   24.9630000  
H 14.3810000   20.0150000   21.3620000  
H 16.1490000   15.6230000   21.8080000  
H 16.8930000   15.3360000   25.0350000  
C 15.6040000   17.3650000   21.0030000  
C 16.5820000   18.1010000   20.3100000  
C 16.6760000   17.9830000   18.9400000  
C 15.9330000   17.0250000   18.1290000  
C 15.0500000   16.2070000   18.8960000  
C 14.8590000   16.3280000   20.2870000  
C 17.4880000   19.1410000   20.7980000  
C 18.1250000   19.6120000   19.6470000  
N 17.6540000   18.9080000   18.5060000  
O 19.4110000   21.2250000   20.8620000  
C 19.1440000   20.7100000   19.6370000  
O 19.6940000   21.0270000   18.6160000  
O 14.5350000   15.0880000   18.3110000  
O 13.9780000   15.4880000   20.9390000  
H 17.6110000   19.5940000   21.8020000  
H 18.6580000   21.0600000   21.4410000  
H 17.9580000   18.8290000   17.5620000  
H 14.6070000   15.2240000   17.3860000  
H 13.6120000   14.8680000   20.2890000  
C 15.9870000   16.9150000   16.6610000  
C 16.6220000   15.7940000   16.1070000  
C 16.6420000   15.5830000   14.7640000  
C 16.0600000   16.4190000   13.8400000  
C 15.3630000   17.5540000   14.4030000  
C 15.2990000   17.7810000   15.8000000  
C 17.2240000   14.7000000   16.8130000  
C 17.6520000   13.8190000   15.8550000  
N 17.4220000   14.4500000   14.6080000  
O 18.4840000   12.1670000   17.2840000  
C 18.2090000   12.4960000   15.9840000  
O 18.3090000   11.6910000   15.0920000  
O 14.9830000   18.5750000   13.5590000  
O 14.6970000   18.9060000   16.2710000  
H 17.3050000   14.5090000   17.8980000  
H 18.6080000   12.9700000   17.8100000  
H 17.6410000   14.1000000   13.7130000  
H 14.3960000   19.1710000   14.1090000  
H 14.7780000   18.8340000   17.2540000  
H 16.2340000   16.3310000   12.7920000  
