76
000 
C 20.0000000   14.4310000   16.2190000  
C 19.0460000   14.4840000   15.1050000  
C 17.9500000   15.2660000   15.1480000  
C 17.5440000   15.9690000   16.2760000  
C 18.1840000   15.8760000   17.4770000  
C 19.5270000   15.2610000   17.5910000  
C 16.9570000   15.6210000   14.1820000  
C 15.9360000   16.3740000   14.7820000  
N 16.3040000   16.5440000   16.0760000  
O 14.4470000   16.4820000   12.9650000  
C 14.7540000   16.9640000   14.1840000  
O 14.0720000   17.8100000   14.8250000  
O 20.3550000   15.4710000   18.4600000  
O 21.0180000   13.7090000   16.2830000  
H 19.3390000   13.8820000   14.2400000  
H 17.0500000   15.4820000   13.1190000  
H 15.1090000   15.8250000   12.7810000  
H 15.6880000   16.9580000   16.7530000  
C 17.4880000   16.5120000   18.6030000  
C 16.6070000   15.7370000   19.4650000  
C 16.0060000   16.3420000   20.5300000  
C 16.1430000   17.7010000   20.8420000  
C 16.9820000   18.4540000   20.0080000  
C 17.6360000   17.9020000   18.8980000  
C 16.1380000   14.3780000   19.3760000  
C 15.2330000   14.3060000   20.4280000  
N 15.2140000   15.4530000   21.1560000  
O 14.4950000   12.1310000   19.9190000  
C 14.3970000   13.1770000   20.7220000  
O 13.6040000   13.0960000   21.7070000  
O 17.2120000   19.7380000   20.3080000  
O 18.4330000   18.6230000   18.1690000  
H 16.2520000   13.7170000   18.5700000  
H 15.0610000   12.2270000   19.1870000  
H 14.6810000   15.6610000   22.0100000  
H 16.4990000   19.9760000   20.9750000  
H 18.3960000   19.5210000   18.5180000  
C 15.4130000   18.3120000   22.0100000  
C 15.6850000   17.9170000   23.3030000  
C 14.8820000   18.4020000   24.3220000  
C 13.8460000   19.3330000   24.1800000  
C 13.6770000   19.8640000   22.8570000  
C 14.4680000   19.3490000   21.8360000  
C 16.6700000   17.0660000   23.8710000  
C 16.3600000   17.0100000   25.2190000  
N 15.2970000   17.8760000   25.4700000  
O 17.9820000   15.2890000   25.5710000  
C 17.1620000   16.1880000   26.1330000  
O 17.0700000   16.3580000   27.3400000  
O 12.7100000   20.7930000   22.6610000  
O 14.2660000   19.8410000   20.5940000  
H 17.3990000   16.6010000   23.2900000  
H 17.6300000   15.1570000   24.7310000  
H 14.8940000   18.2160000   26.3100000  
H 12.5350000   21.3160000   23.4670000  
H 13.4570000   20.4020000   20.5190000  
C 12.9690000   19.8160000   25.2980000  
C 13.6190000   20.4570000   26.3520000  
C 12.9780000   20.8700000   27.4600000  
C 11.6110000   20.5640000   27.6100000  
C 10.9350000   19.9680000   26.5390000  
C 11.6260000   19.5910000   25.3930000  
C 14.9930000   21.0090000   26.5610000  
C 15.0840000   21.5350000   27.8020000  
N 13.8770000   21.4390000   28.4040000  
O 17.4510000   22.1090000   27.7190000  
C 16.2490000   22.1320000   28.3900000  
O 16.1940000   22.6420000   29.4660000  
O  9.6690000   19.4940000   26.7160000  
O 10.9700000   19.0360000   24.2740000  
H 15.8230000   20.9500000   25.8040000  
H 17.2080000   21.5570000   26.9450000  
H 13.6460000   21.8060000   29.2850000  
H  9.4550000   18.9900000   25.9520000  
H 11.5630000   19.0790000   23.5150000  
H 11.0880000   20.7630000   28.5730000  
