76
000 
C 15.2690000   10.9300000   25.2770000  
C 15.4830000    9.9790000   24.1340000  
C 15.5360000   10.4830000   22.8720000  
C 15.6540000   11.8670000   22.5680000  
C 15.6450000   12.8400000   23.5410000  
C 15.6240000   12.4520000   24.9510000  
C 15.5170000    9.7430000   21.6580000  
C 15.4820000   10.7270000   20.6090000  
N 15.5190000   11.9790000   21.2140000  
O 15.5530000    9.1040000   18.8230000  
C 15.4840000   10.4230000   19.1560000  
O 15.5140000   11.2570000   18.2300000  
O 15.7590000   13.3100000   25.7670000  
O 15.0320000   10.6160000   26.4150000  
H 15.3210000    8.9060000   24.2300000  
H 15.4690000    8.6820000   21.5050000  
H 15.6470000    8.6170000   19.7250000  
H 15.6910000   12.8550000   20.7810000  
C 15.6170000   14.2040000   23.1070000  
C 14.4980000   14.9450000   23.4410000  
C 14.3840000   16.2640000   22.9670000  
C 15.3930000   16.9470000   22.2760000  
C 16.4810000   16.2010000   21.9830000  
C 16.6460000   14.8350000   22.2760000  
C 13.3310000   14.6850000   24.2000000  
C 12.6630000   15.9330000   24.3550000  
N 13.3400000   16.9090000   23.5500000  
O 10.9880000   15.0660000   25.7440000  
C 11.5320000   16.1900000   25.2860000  
O 11.0380000   17.2560000   25.5800000  
O 17.5500000   16.6940000   21.3100000  
O 17.8240000   14.2610000   21.8940000  
H 13.1120000   13.7400000   24.6390000  
H 11.5790000   14.3830000   25.3590000  
H 13.0180000   17.8280000   23.4110000  
H 17.5590000   17.5880000   21.5440000  
H 18.4900000   14.9410000   21.8690000  
C 15.2640000   18.4200000   21.8730000  
C 16.2150000   19.3670000   22.2990000  
C 16.1640000   20.6650000   21.8030000  
C 15.3970000   21.1440000   20.7750000  
C 14.3480000   20.1960000   20.3690000  
C 14.3080000   18.8270000   20.8860000  
C 17.3330000   19.4190000   23.2590000  
C 17.8750000   20.6710000   23.2170000  
N 17.1400000   21.4870000   22.3050000  
O 19.8620000   20.3680000   24.6130000  
C 19.0710000   21.2430000   23.9620000  
O 19.4610000   22.3630000   23.7200000  
O 13.4110000   20.4000000   19.4230000  
O 13.4660000   17.8900000   20.4370000  
H 17.7920000   18.5260000   23.7830000  
H 19.4230000   19.5670000   24.4320000  
H 17.3470000   22.4790000   22.1260000  
H 13.6000000   21.2470000   19.0620000  
H 12.7130000   18.2940000   19.9760000  
C 15.4330000   22.5750000   20.3830000  
C 16.0370000   22.8860000   19.1460000  
C 16.0910000   24.1720000   18.6780000  
C 15.8740000   25.2780000   19.5180000  
C 15.2760000   25.0260000   20.8020000  
C 15.0160000   23.7160000   21.1990000  
C 16.5790000   22.0720000   18.1010000  
C 16.9900000   22.9190000   17.0910000  
N 16.7280000   24.2260000   17.4360000  
O 17.8210000   21.0560000   15.8050000  
C 17.5790000   22.4050000   15.8330000  
O 17.8140000   23.1010000   14.8660000  
O 14.8830000   26.1220000   21.5510000  
O 14.3470000   23.4440000   22.3110000  
H 16.7330000   20.9940000   18.2360000  
H 17.3540000   20.7320000   16.6260000  
H 16.6180000   25.0750000   16.8330000  
H 14.3890000   25.6860000   22.2790000  
H 14.4200000   22.5380000   22.6280000  
H 15.9610000   26.3100000   19.1350000  
