76
000 
C 19.4060000   23.4070000   18.6110000  
C 18.6190000   24.5620000   19.0300000  
C 17.3380000   24.4880000   19.5940000  
C 16.6980000   23.2720000   19.7620000  
C 17.3410000   22.0870000   19.5270000  
C 18.6910000   22.0410000   18.9400000  
C 16.3820000   25.4280000   20.0380000  
C 15.2240000   24.7840000   20.4660000  
N 15.5310000   23.4170000   20.3750000  
O 13.8320000   26.6090000   21.0050000  
C 13.8740000   25.2650000   20.8790000  
O 12.9540000   24.5260000   21.0360000  
O 19.2020000   20.9710000   18.6340000  
O 20.4900000   23.5020000   18.0090000  
H 19.1210000   25.5360000   18.8390000  
H 16.5480000   26.4860000   20.0140000  
H 14.7560000   26.9870000   20.8430000  
H 14.8370000   22.6640000   20.6450000  
C 16.7870000   20.7880000   20.1030000  
C 16.1960000   19.8040000   19.3110000  
C 15.6580000   18.6390000   19.8090000  
C 15.5780000   18.3370000   21.1520000  
C 16.2410000   19.2690000   22.0220000  
C 16.7710000   20.5000000   21.5220000  
C 16.2340000   19.5730000   17.8550000  
C 15.7750000   18.2530000   17.6030000  
N 15.3570000   17.7110000   18.8470000  
O 15.9860000   18.0580000   15.1900000  
C 15.5900000   17.4960000   16.3470000  
O 15.0670000   16.4070000   16.3690000  
O 16.3090000   18.9290000   23.3830000  
O 17.2190000   21.3930000   22.4870000  
H 16.5970000   20.2320000   17.0730000  
H 16.5550000   18.8930000   15.2880000  
H 15.0440000   16.7430000   18.9760000  
H 16.0910000   18.0280000   23.5020000  
H 17.0980000   20.8830000   23.3170000  
C 15.0670000   17.0390000   21.6650000  
C 15.8810000   15.8700000   21.5940000  
C 15.4460000   14.6400000   22.0820000  
C 14.2860000   14.5150000   22.8680000  
C 13.4490000   15.6080000   22.8620000  
C 13.7850000   16.8690000   22.2970000  
C 17.2520000   15.6700000   21.0930000  
C 17.5740000   14.3440000   21.3770000  
N 16.4350000   13.7070000   21.9290000  
O 19.9630000   14.4920000   20.8360000  
C 18.9240000   13.7260000   21.0920000  
O 19.1240000   12.5680000   21.2090000  
O 12.2080000   15.5130000   23.4780000  
O 12.8720000   17.9280000   22.3510000  
H 17.9790000   16.3760000   20.6570000  
H 19.5350000   15.3790000   20.6910000  
H 16.2970000   12.7300000   22.2140000  
H 12.1460000   14.6750000   23.9680000  
H 13.1700000   18.6590000   21.7950000  
C 13.9660000   13.2660000   23.6650000  
C 13.7280000   13.2890000   25.0560000  
C 13.5960000   12.1350000   25.7750000  
C 13.4730000   10.8550000   25.1370000  
C 13.6140000   10.7480000   23.7500000  
C 13.7970000   11.9470000   22.9930000  
C 13.8830000   14.3500000   26.0760000  
C 13.7910000   13.7370000   27.3640000  
N 13.7370000   12.3350000   27.1110000  
O 13.8220000   15.6480000   28.5660000  
C 13.7410000   14.3300000   28.6740000  
O 13.6880000   13.6940000   29.7370000  
O 13.4450000    9.5490000   23.0750000  
O 13.9130000   11.9000000   21.6040000  
H 13.9890000   15.4020000   25.8880000  
H 13.8670000   15.7120000   27.6010000  
H 13.8590000   11.6960000   27.8600000  
H 13.5210000    9.8050000   22.0900000  
H 14.1370000   12.8470000   21.3220000  
H 13.3480000    9.9270000   25.6230000  
