76
000 
C 15.9710000   18.0440000   29.1970000  
C 14.7150000   17.3280000   29.5340000  
C 14.0230000   16.6560000   28.5270000  
C 14.4560000   16.6370000   27.2230000  
C 15.6350000   17.2140000   26.8040000  
C 16.4560000   17.9730000   27.7220000  
C 12.7470000   15.9250000   28.4390000  
C 12.5270000   15.5210000   27.0980000  
N 13.6020000   16.0420000   26.3760000  
O 10.4140000   14.3830000   27.3390000  
C 11.4810000   14.6180000   26.5270000  
O 11.4840000   14.3500000   25.3500000  
O 17.5370000   18.4750000   27.3950000  
O 16.6160000   18.5670000   30.0830000  
H 14.3200000   17.3170000   30.5200000  
H 11.9940000   15.8890000   29.2890000  
H 10.6470000   14.7980000   28.2030000  
H 13.6520000   15.9820000   25.3400000  
C 15.7620000   17.3440000   25.3650000  
C 15.3520000   18.4650000   24.7160000  
C 15.1700000   18.4930000   23.3470000  
C 15.5280000   17.4920000   22.4730000  
C 16.1360000   16.3510000   23.1320000  
C 16.2180000   16.3000000   24.5740000  
C 14.6120000   19.5690000   25.2400000  
C 14.0150000   20.1980000   24.1740000  
N 14.4360000   19.6140000   23.0070000  
O 13.1840000   22.0850000   25.5620000  
C 13.2380000   21.5290000   24.2840000  
O 12.6460000   22.0220000   23.3410000  
O 16.7900000   15.4350000   22.3450000  
O 16.6230000   15.1070000   25.1170000  
H 14.3760000   19.7690000   26.3590000  
H 13.5740000   21.4380000   26.1260000  
H 14.1500000   19.8420000   22.0490000  
H 16.8890000   15.6330000   21.4370000  
H 16.6940000   14.4240000   24.3740000  
C 15.5530000   17.6710000   20.9840000  
C 16.4300000   18.6600000   20.4770000  
C 16.6380000   18.7720000   19.1040000  
C 15.8810000   17.9550000   18.1890000  
C 15.0100000   16.9720000   18.7610000  
C 14.8460000   16.7880000   20.1760000  
C 17.2350000   19.6910000   21.0450000  
C 17.8420000   20.4230000   20.0120000  
N 17.3990000   19.9090000   18.7790000  
O 19.1350000   21.8260000   21.3720000  
C 18.8470000   21.4920000   20.0790000  
O 19.2960000   22.1460000   19.1790000  
O 14.3370000   16.2350000   17.8400000  
O 13.9540000   15.8590000   20.6310000  
H 17.3630000   19.9020000   22.0770000  
H 18.7060000   21.1380000   21.8530000  
H 17.7000000   20.1470000   17.8350000  
H 14.6630000   16.5340000   16.9510000  
H 13.4770000   15.4760000   19.8380000  
C 16.1160000   17.9000000   16.7060000  
C 16.7430000   16.8400000   16.0280000  
C 16.7560000   16.7480000   14.6460000  
C 16.0160000   17.6830000   13.8380000  
C 15.3600000   18.7660000   14.4450000  
C 15.4250000   18.8900000   15.8700000  
C 17.4270000   15.6960000   16.4860000  
C 17.9160000   14.9820000   15.3920000  
N 17.4610000   15.6420000   14.2400000  
O 18.7560000   13.2070000   16.7280000  
C 18.7300000   13.7300000   15.4620000  
O 19.2800000   13.1980000   14.5020000  
O 14.4810000   19.4730000   13.7000000  
O 14.7090000   19.9520000   16.3930000  
H 17.6110000   15.3640000   17.4450000  
H 18.3230000   13.8320000   17.3240000  
H 17.5790000   15.2540000   13.3160000  
H 14.2070000   20.1820000   14.3090000  
H 14.5810000   19.8660000   17.3360000  
H 16.0190000   17.5380000   12.7810000  
