76
000 
C 20.1510000   15.7200000   16.0670000  
C 19.3720000   16.1060000   14.8480000  
C 18.3440000   17.0150000   14.8920000  
C 17.8520000   17.4100000   16.1380000  
C 18.2900000   17.0390000   17.3780000  
C 19.5170000   16.2080000   17.4230000  
C 17.5680000   17.5150000   13.8240000  
C 16.4730000   18.1660000   14.4100000  
N 16.7000000   18.0110000   15.8180000  
O 15.1940000   18.7160000   12.4800000  
C 15.3030000   18.8370000   13.8040000  
O 14.5410000   19.5210000   14.4700000  
O 19.9680000   15.7160000   18.4610000  
O 21.1890000   15.1060000   15.9430000  
H 19.7690000   15.7280000   13.9480000  
H 17.7320000   17.4210000   12.7950000  
H 15.9560000   18.1040000   12.2230000  
H 16.0930000   18.4010000   16.5530000  
C 17.4870000   17.4670000   18.5330000  
C 16.6450000   16.5550000   19.1740000  
C 15.8690000   16.7910000   20.2330000  
C 15.8930000   17.9660000   20.9440000  
C 16.6590000   18.9730000   20.3380000  
C 17.4650000   18.7730000   19.1680000  
C 16.3230000   15.2200000   18.7130000  
C 15.2510000   14.7400000   19.4920000  
N 15.0740000   15.6750000   20.5240000  
O 14.9740000   12.6590000   18.3390000  
C 14.5470000   13.4490000   19.3790000  
O 13.7140000   13.1490000   20.1390000  
O 16.6730000   20.1440000   21.0190000  
O 18.3880000   19.7610000   18.8680000  
H 16.6360000   14.6610000   17.8860000  
H 15.6450000   13.3030000   17.8570000  
H 14.4600000   15.5670000   21.3280000  
H 16.1920000   20.0420000   21.8890000  
H 18.1680000   20.5810000   19.2940000  
C 15.0750000   18.0970000   22.1490000  
C 15.4120000   17.4030000   23.3280000  
C 14.6630000   17.4870000   24.4190000  
C 13.5200000   18.3460000   24.5300000  
C 13.2160000   19.1740000   23.4480000  
C 13.9920000   19.0170000   22.2610000  
C 16.4630000   16.4760000   23.6570000  
C 16.2470000   16.0310000   24.9540000  
N 15.0940000   16.6880000   25.5040000  
O 18.2210000   14.6300000   25.0050000  
C 17.1050000   15.0550000   25.6620000  
O 16.7660000   14.4330000   26.6720000  
O 12.1460000   20.0100000   23.5080000  
O 13.6150000   19.6920000   21.1380000  
H 17.3590000   16.2730000   23.0950000  
H 18.2170000   14.8940000   24.1380000  
H 14.7320000   16.6690000   26.4990000  
H 11.9250000   20.1210000   24.4220000  
H 12.8840000   20.2400000   21.4050000  
C 12.9630000   18.4730000   25.8940000  
C 13.7030000   19.1720000   26.9300000  
C 13.0980000   19.4850000   28.1480000  
C 11.7990000   19.0060000   28.4900000  
C 11.1080000   18.2330000   27.5160000  
C 11.6500000   18.0290000   26.2280000  
C 15.0180000   19.8480000   26.8820000  
C 15.1000000   20.5390000   28.1090000  
N 13.9580000   20.2870000   28.8500000  
O 17.1540000   21.6370000   27.6110000  
C 16.1240000   21.4940000   28.5320000  
O 16.0860000   22.1100000   29.5800000  
O  9.8810000   17.7140000   27.8850000  
O 10.8320000   17.3610000   25.3550000  
H 15.7290000   19.9630000   26.0220000  
H 16.8470000   21.1320000   26.8660000  
H 13.8270000   20.8050000   29.6820000  
H  9.7500000   16.8860000   27.3690000  
H 11.3190000   17.2600000   24.5240000  
H 11.2540000   19.2240000   29.4240000  
