76
000 
C 15.1390000   15.8310000   29.3840000  
C 14.1100000   14.8230000   29.1640000  
C 13.6350000   14.4190000   27.9030000  
C 14.0800000   15.0690000   26.7750000  
C 15.0750000   15.9890000   26.7280000  
C 15.7250000   16.4090000   27.9810000  
C 12.5480000   13.5670000   27.5700000  
C 12.3310000   13.6990000   26.2110000  
N 13.3770000   14.4820000   25.7020000  
O 10.2190000   12.6150000   26.0030000  
C 11.3690000   13.0330000   25.3750000  
O 11.4930000   12.9750000   24.1280000  
O 16.7480000   17.0740000   27.9830000  
O 15.5600000   16.1210000   30.4440000  
H 13.7290000   14.3170000   30.0470000  
H 11.8600000   13.0640000   28.2760000  
H 10.2720000   12.9750000   26.8750000  
H 13.5500000   14.6890000   24.7260000  
C 15.3430000   16.5170000   25.3420000  
C 14.7440000   17.6540000   24.7650000  
C 15.1060000   18.1160000   23.5510000  
C 16.0260000   17.5500000   22.6440000  
C 16.6100000   16.3330000   23.1580000  
C 16.2730000   15.8780000   24.4930000  
C 13.6190000   18.3880000   25.2360000  
C 13.3120000   19.3080000   24.2840000  
N 14.3330000   19.1590000   23.2210000  
O 11.1570000   19.9230000   25.0560000  
C 12.1430000   20.2400000   24.1900000  
O 12.0930000   21.1980000   23.4050000  
O 17.4400000   15.6160000   22.3940000  
O 17.0310000   14.7970000   24.8870000  
H 12.9980000   17.9870000   26.0300000  
H 11.3870000   19.0910000   25.4560000  
H 14.3180000   19.5530000   22.2830000  
H 17.4910000   16.0320000   21.5390000  
H 17.5540000   14.5940000   24.0620000  
C 16.1310000   18.0670000   21.2300000  
C 17.2410000   18.7800000   20.8090000  
C 17.3380000   19.3250000   19.5380000  
C 16.3860000   19.1230000   18.5130000  
C 15.2580000   18.4160000   18.8530000  
C 15.1010000   17.9330000   20.1980000  
C 18.3820000   19.2730000   21.6210000  
C 19.0120000   20.1870000   20.7740000  
N 18.5140000   20.0520000   19.4660000  
O 20.6060000   20.9390000   22.4260000  
C 20.1600000   21.0460000   21.1290000  
O 20.7050000   21.8790000   20.4300000  
O 14.2870000   18.0940000   17.9000000  
O 13.9340000   17.2760000   20.4810000  
H 18.4970000   19.0960000   22.7240000  
H 20.3850000   20.0690000   22.8350000  
H 18.8670000   20.5820000   18.6330000  
H 14.7280000   18.2360000   17.0360000  
H 13.1800000   17.4680000   19.7830000  
C 16.6030000   19.5840000   17.0550000  
C 16.7410000   18.6880000   15.9940000  
C 16.9020000   18.9940000   14.6600000  
C 16.8780000   20.3630000   14.3010000  
C 16.8720000   21.3450000   15.2940000  
C 16.8040000   20.9430000   16.6880000  
C 16.7950000   17.2650000   16.1210000  
C 16.7640000   16.7610000   14.8160000  
N 17.0120000   17.8320000   13.9060000  
O 16.4530000   14.5500000   15.3500000  
C 16.7360000   15.3740000   14.3230000  
O 16.9380000   15.0690000   13.1630000  
O 16.8700000   22.6640000   14.8980000  
O 16.9160000   21.8770000   17.6480000  
H 16.8210000   16.5900000   16.9980000  
H 16.1680000   15.1500000   16.0680000  
H 16.9870000   17.7510000   12.8810000  
H 16.5090000   23.1400000   15.7240000  
H 16.4700000   21.6080000   18.4230000  
H 16.9240000   20.6420000   13.2290000  
