76
000 
C 19.9870000   21.7190000   16.9350000  
C 19.1000000   22.7470000   16.3090000  
C 17.7910000   22.9400000   16.7380000  
C 17.3230000   22.1530000   17.7690000  
C 17.8890000   21.0250000   18.3260000  
C 19.3540000   20.8140000   18.0210000  
C 16.7470000   23.8310000   16.3680000  
C 15.6010000   23.5270000   17.1500000  
N 15.9860000   22.4630000   17.9790000  
O 14.0900000   24.9720000   16.1340000  
C 14.2690000   24.1100000   17.0810000  
O 13.3580000   23.7270000   17.8310000  
O 20.0020000   20.0580000   18.6970000  
O 21.1190000   21.4900000   16.6680000  
H 19.4620000   23.2980000   15.4540000  
H 16.8720000   24.6320000   15.6330000  
H 14.8840000   25.0260000   15.6530000  
H 15.4670000   22.0260000   18.6930000  
C 17.1450000   20.2610000   19.3010000  
C 16.7010000   18.9250000   18.9780000  
C 16.2190000   18.1630000   19.9630000  
C 16.0270000   18.4630000   21.3490000  
C 16.3670000   19.7800000   21.6690000  
C 16.9650000   20.6350000   20.7000000  
C 16.6850000   18.2820000   17.7220000  
C 15.9530000   17.1100000   17.9770000  
N 15.8180000   16.9630000   19.3760000  
O 15.6920000   16.5590000   15.6460000  
C 15.5100000   16.1450000   16.9380000  
O 14.8670000   15.1390000   17.2170000  
O 16.2780000   20.2070000   22.9310000  
O 17.4260000   21.8640000   21.2180000  
H 16.8000000   18.6110000   16.7000000  
H 16.1840000   17.4100000   15.7830000  
H 15.3430000   16.1620000   19.7800000  
H 16.0690000   19.3920000   23.4540000  
H 17.2930000   21.8100000   22.1600000  
C 15.2870000   17.5530000   22.3140000  
C 15.8710000   16.3980000   22.8360000  
C 15.1660000   15.5730000   23.5740000  
C 13.8040000   15.6690000   24.0030000  
C 13.1060000   16.7570000   23.3630000  
C 13.8800000   17.6910000   22.5900000  
C 17.1980000   15.8460000   22.7050000  
C 17.1860000   14.6170000   23.3000000  
N 15.9290000   14.4230000   23.8990000  
O 19.5060000   14.2150000   23.2250000  
C 18.3100000   13.7200000   23.5560000  
O 18.1950000   12.6410000   24.1020000  
O 11.7600000   16.8520000   23.4700000  
O 13.1860000   18.6460000   21.8550000  
H 18.0250000   16.2020000   22.1390000  
H 19.3550000   15.0650000   22.8030000  
H 15.5670000   13.5540000   24.3420000  
H 11.5180000   16.1100000   24.1360000  
H 13.6480000   19.4690000   21.5980000  
C 13.2230000   14.5490000   24.8290000  
C 13.6150000   14.3650000   26.2110000  
C 13.0670000   13.3450000   26.9620000  
C 12.1190000   12.4330000   26.4870000  
C 11.6060000   12.6780000   25.2430000  
C 12.2090000   13.6900000   24.3890000  
C 14.4660000   15.1860000   27.0580000  
C 14.4530000   14.5230000   28.2970000  
N 13.6350000   13.4220000   28.2110000  
O 15.8800000   15.9010000   29.5770000  
C 15.1320000   14.8070000   29.6000000  
O 14.9830000   14.1490000   30.6330000  
O 10.6070000   11.8980000   24.8000000  
O 11.8060000   13.8230000   23.0690000  
H 15.0090000   16.0880000   26.8260000  
H 15.7920000   16.2190000   28.6550000  
H 13.4810000   12.6230000   28.8700000  
H 10.5760000   11.8410000   23.8550000  
H 12.3620000   14.4130000   22.5400000  
H 11.8210000   11.7220000   27.2320000  
