76
000 
C 20.0070000   18.0260000   15.3730000  
C 19.3130000   19.1050000   14.6560000  
C 18.3880000   19.8870000   15.1990000  
C 18.0070000   19.6630000   16.4950000  
C 18.3200000   18.5190000   17.2360000  
C 19.3660000   17.6100000   16.6970000  
C 17.5180000   20.8740000   14.7080000  
C 16.5540000   21.1830000   15.6600000  
N 16.8540000   20.3780000   16.7330000  
O 15.3530000   22.8090000   14.3170000  
C 15.4300000   22.1020000   15.5230000  
O 14.7050000   22.4060000   16.4280000  
O 19.7470000   16.6040000   17.3560000  
O 20.9840000   17.5000000   14.9210000  
H 19.6500000   19.3770000   13.6660000  
H 17.6130000   21.2390000   13.7480000  
H 15.8550000   22.3530000   13.6930000  
H 16.3000000   20.3830000   17.5680000  
C 17.5270000   18.2760000   18.4900000  
C 16.4570000   17.3520000   18.5710000  
C 15.7900000   17.1330000   19.7270000  
C 15.9910000   17.7690000   20.9130000  
C 17.0390000   18.7090000   20.9080000  
C 17.8020000   18.9470000   19.7380000  
C 15.9780000   16.3950000   17.5960000  
C 14.8910000   15.7010000   18.1730000  
N 14.9110000   16.0660000   19.5450000  
O 14.4490000   14.2370000   16.4080000  
C 14.0000000   14.7170000   17.5990000  
O 13.0200000   14.2470000   18.2220000  
O 17.3920000   19.3030000   22.1290000  
O 18.9500000   19.7930000   19.7680000  
H 16.2030000   16.3180000   16.5260000  
H 15.2400000   14.6930000   16.2480000  
H 14.4010000   15.6040000   20.3030000  
H 16.9580000   18.7650000   22.8380000  
H 18.9750000   20.2800000   20.6670000  
C 15.2720000   17.4630000   22.1980000  
C 15.8300000   16.7090000   23.2600000  
C 15.1010000   16.5300000   24.3840000  
C 13.7630000   16.8870000   24.5870000  
C 13.1930000   17.6600000   23.5230000  
C 13.9170000   17.8600000   22.3590000  
C 17.0600000   16.0190000   23.4210000  
C 17.0120000   15.4370000   24.6500000  
N 15.7840000   15.7060000   25.2230000  
O 19.2000000   14.6170000   24.6550000  
C 18.0040000   14.5570000   25.2840000  
O 17.8330000   13.9140000   26.3090000  
O 11.9330000   18.2610000   23.6630000  
O 13.3940000   18.6200000   21.3290000  
H 17.7840000   15.8570000   22.6040000  
H 19.0230000   15.1400000   23.8950000  
H 15.5530000   15.2970000   26.1030000  
H 11.3780000   17.8750000   24.3910000  
H 12.4230000   18.7410000   21.4290000  
C 13.0210000   16.6260000   25.9100000  
C 13.2960000   17.3660000   27.0710000  
C 12.7290000   17.1200000   28.2880000  
C 11.7560000   16.1630000   28.4400000  
C 11.3240000   15.3960000   27.3270000  
C 11.9840000   15.6200000   26.0910000  
C 14.2000000   18.4170000   27.2440000  
C 14.1880000   18.7870000   28.5830000  
N 13.2750000   17.9180000   29.2730000  
O 15.8090000   20.4440000   28.4560000  
C 15.0130000   19.8050000   29.3120000  
O 14.9860000   20.1290000   30.4910000  
O 10.2430000   14.5520000   27.4080000  
O 11.5110000   14.8680000   24.9960000  
H 14.8810000   18.8660000   26.5720000  
H 15.7950000   19.8640000   27.6760000  
H 13.1470000   17.8520000   30.3000000  
H  9.9280000   14.2110000   26.5030000  
H 12.1180000   14.8220000   24.2970000  
H 11.3210000   16.0360000   29.4250000  
