76
000 
C 20.3700000   20.7930000   16.6510000  
C 19.5040000   21.4910000   15.7090000  
C 18.1920000   21.5440000   16.0160000  
C 17.6450000   20.7800000   17.0450000  
C 18.2890000   19.9530000   17.9440000  
C 19.7230000   20.0380000   17.9140000  
C 17.0750000   22.0120000   15.1870000  
C 15.9160000   21.6960000   15.9230000  
N 16.3520000   21.0500000   17.0430000  
O 14.3730000   22.8340000   14.5430000  
C 14.5390000   22.0600000   15.6580000  
O 13.6030000   21.6790000   16.3380000  
O 20.4670000   19.5410000   18.7400000  
O 21.5540000   20.6540000   16.4440000  
H 19.8600000   21.9090000   14.7770000  
H 17.1880000   22.4620000   14.2120000  
H 15.3460000   22.9780000   14.2490000  
H 15.7310000   20.6900000   17.6260000  
C 17.5130000   19.4040000   19.0370000  
C 16.8210000   18.2360000   18.8440000  
C 16.0520000   17.7710000   19.8650000  
C 15.9800000   18.3980000   21.1450000  
C 16.7690000   19.5150000   21.3260000  
C 17.4880000   20.0980000   20.2580000  
C 16.6170000   17.3220000   17.7400000  
C 15.7320000   16.3370000   18.1670000  
N 15.3530000   16.6190000   19.4610000  
O 15.9240000   14.9050000   16.2260000  
C 15.3940000   15.0920000   17.4380000  
O 14.5220000   14.3730000   17.9230000  
O 16.8010000   20.1520000   22.5060000  
O 18.1710000   21.2390000   20.4180000  
H 16.9880000   17.3970000   16.7240000  
H 16.5550000   15.5730000   15.9790000  
H 14.8740000   15.9680000   20.0050000  
H 16.0390000   19.8240000   22.8950000  
H 18.1180000   21.3840000   21.3560000  
C 15.1880000   17.7420000   22.2480000  
C 15.3560000   16.3780000   22.4610000  
C 14.6570000   15.7980000   23.4840000  
C 13.7890000   16.4300000   24.4180000  
C 13.6900000   17.8050000   24.1930000  
C 14.3500000   18.4300000   23.1280000  
C 16.3420000   15.3860000   22.0410000  
C 16.0850000   14.2040000   22.8330000  
N 14.9920000   14.4740000   23.6540000  
O 17.4810000   12.7610000   21.5790000  
C 16.7030000   12.8280000   22.6710000  
O 16.4180000   11.9010000   23.3880000  
O 13.0220000   18.5780000   25.0670000  
O 14.0910000   19.7810000   22.8660000  
H 17.1870000   15.4230000   21.2560000  
H 17.7330000   13.7470000   21.5450000  
H 14.6240000   13.9300000   24.3700000  
H 12.4400000   17.8650000   25.5110000  
H 13.7200000   20.1660000   23.7000000  
C 13.1390000   15.7030000   25.6040000  
C 13.4880000   16.0320000   26.9160000  
C 12.8910000   15.5020000   28.0310000  
C 12.0220000   14.4910000   27.9160000  
C 11.6090000   14.0840000   26.6410000  
C 12.2410000   14.6000000   25.5050000  
C 14.4920000   16.9810000   27.4390000  
C 14.4190000   16.9340000   28.8880000  
N 13.4300000   16.0000000   29.1650000  
O 15.8510000   18.6730000   29.3790000  
C 15.0760000   17.7650000   29.9330000  
O 14.9220000   17.5820000   31.1160000  
O 10.8950000   12.8460000   26.5760000  
O 11.9030000   14.1330000   24.2900000  
H 15.1540000   17.6220000   26.8710000  
H 15.7780000   18.4460000   28.4360000  
H 13.1680000   15.7610000   30.1130000  
H 10.8850000   12.4110000   25.7250000  
H 12.1180000   14.8410000   23.6440000  
H 11.6180000   13.9900000   28.7570000  
