76
000 
C 16.0160000   19.2680000   29.2900000  
C 14.5540000   19.4020000   29.5630000  
C 13.6890000   19.3450000   28.5320000  
C 14.0430000   19.0820000   27.2130000  
C 15.2990000   18.6810000   26.8650000  
C 16.4210000   18.7120000   27.8120000  
C 12.3020000   19.4810000   28.5400000  
C 11.8100000   19.3230000   27.2420000  
N 12.9400000   18.9580000   26.4530000  
O  9.4360000   19.5840000   27.6520000  
C 10.4150000   19.3890000   26.7570000  
O 10.1400000   19.3190000   25.5580000  
O 17.5490000   18.3620000   27.5700000  
O 16.9350000   19.3950000   30.1060000  
H 14.2110000   19.7150000   30.6340000  
H 11.6970000   19.6250000   29.5030000  
H  9.8640000   19.7130000   28.5250000  
H 12.8640000   18.8830000   25.4850000  
C 15.3930000   18.2330000   25.4460000  
C 15.3470000   19.1550000   24.3640000  
C 15.3340000   18.7300000   23.0700000  
C 15.4080000   17.3600000   22.6920000  
C 15.5180000   16.4310000   23.7860000  
C 15.6490000   16.8590000   25.1180000  
C 15.1690000   20.6020000   24.2820000  
C 15.1410000   20.9570000   22.9070000  
N 15.2000000   19.7760000   22.1790000  
O 15.2690000   23.3000000   23.1810000  
C 15.2160000   22.3030000   22.2810000  
O 15.0140000   22.5070000   21.0830000  
O 15.8970000   15.1420000   23.3650000  
O 15.8210000   15.9300000   26.1230000  
H 15.1170000   21.2940000   25.0960000  
H 15.7030000   22.9360000   23.9900000  
H 15.2870000   19.6830000   21.1600000  
H 15.4570000   14.9940000   22.5300000  
H 16.0700000   15.0400000   25.7260000  
C 15.4500000   16.9120000   21.2720000  
C 16.2260000   17.5730000   20.2420000  
C 16.1440000   17.3580000   18.8820000  
C 15.3620000   16.3050000   18.3430000  
C 14.4850000   15.6860000   19.3190000  
C 14.5520000   15.9290000   20.7140000  
C 17.3000000   18.4650000   20.3920000  
C 17.9660000   18.6400000   19.1570000  
N 17.1530000   17.9760000   18.2000000  
O 19.5940000   19.9080000   20.0390000  
C 19.1880000   19.3660000   18.8950000  
O 19.8260000   19.5370000   17.8840000  
O 13.6580000   14.7160000   18.9840000  
O 13.7350000   15.1720000   21.5650000  
H 17.6650000   18.7890000   21.3680000  
H 18.9390000   19.5880000   20.7280000  
H 17.3860000   17.7420000   17.2300000  
H 13.9050000   14.4590000   18.0710000  
H 13.4060000   14.3800000   21.0790000  
C 15.4910000   15.9330000   16.9360000  
C 16.5850000   15.1090000   16.5560000  
C 16.6990000   14.6980000   15.2270000  
C 15.8130000   15.0900000   14.2750000  
C 14.7380000   15.9850000   14.5730000  
C 14.5550000   16.3840000   15.9250000  
C 17.7570000   14.7180000   17.2650000  
C 18.6140000   14.1140000   16.3600000  
N 17.9830000   14.1170000   15.0820000  
O 20.2590000   13.4920000   17.9770000  
C 19.9490000   13.5150000   16.6580000  
O 20.7180000   13.0290000   15.7980000  
O 13.8320000   16.2710000   13.5760000  
O 13.6540000   17.2660000   16.2280000  
H 17.9500000   14.8240000   18.3760000  
H 19.5180000   13.9950000   18.4230000  
H 18.3270000   13.7150000   14.2800000  
H 13.1280000   16.7870000   14.0880000  
H 13.8530000   17.5270000   17.0790000  
H 15.9420000   14.8740000   13.1670000  
