76
000 
C 17.4360000   10.2500000   22.8100000  
C 16.6950000    9.7070000   21.5870000  
C 16.1150000   10.5370000   20.7040000  
C 16.1200000   11.8810000   20.8380000  
C 16.7570000   12.5040000   21.8570000  
C 17.3490000   11.8340000   23.0110000  
C 15.3400000   10.3240000   19.5420000  
C 14.8740000   11.4970000   18.9940000  
N 15.3190000   12.4230000   19.9060000  
O 13.7940000   10.6510000   17.0630000  
C 14.0790000   11.7310000   17.7900000  
O 13.6310000   12.8440000   17.4820000  
O 17.7460000   12.5160000   23.9620000  
O 17.9920000    9.5340000   23.6140000  
H 16.7110000    8.6500000   21.4520000  
H 15.1570000    9.3730000   19.0720000  
H 14.2210000    9.9500000   17.5500000  
H 15.2000000   13.4260000   19.8380000  
C 16.4940000   13.9570000   21.8230000  
C 15.4910000   14.5470000   22.6290000  
C 15.1960000   15.8430000   22.4480000  
C 15.8200000   16.7570000   21.5510000  
C 16.8860000   16.1550000   20.8780000  
C 17.2280000   14.8290000   20.9810000  
C 14.5860000   14.0450000   23.6310000  
C 13.7440000   15.1090000   23.9200000  
N 14.1900000   16.2760000   23.2160000  
O 12.6230000   13.8140000   25.5340000  
C 12.6480000   15.0000000   24.9050000  
O 11.7810000   15.8820000   25.0740000  
O 17.7140000   16.9740000   20.1270000  
O 18.2820000   14.3970000   20.1630000  
H 14.6170000   12.9820000   24.1200000  
H 13.2380000   13.3070000   25.0710000  
H 13.7760000   17.2050000   23.3170000  
H 17.2980000   17.9080000   20.0010000  
H 18.4640000   15.2830000   19.7220000  
C 15.5600000   18.2210000   21.4950000  
C 15.6750000   18.9900000   22.6630000  
C 15.4670000   20.3480000   22.6620000  
C 15.0360000   21.1360000   21.5740000  
C 14.9020000   20.3520000   20.3830000  
C 15.0770000   18.9310000   20.3140000  
C 16.1400000   18.6500000   23.9850000  
C 16.1890000   19.8050000   24.7600000  
N 15.8200000   20.8780000   23.9300000  
O 17.0980000   18.8270000   26.7390000  
C 16.6770000   19.9210000   26.1760000  
O 16.5950000   20.9720000   26.8300000  
O 14.5390000   21.0430000   19.2210000  
O 14.9130000   18.3270000   19.1350000  
H 16.3160000   17.6220000   24.3100000  
H 17.1970000   18.1830000   26.0120000  
H 15.9730000   21.8580000   24.0940000  
H 14.6220000   21.9920000   19.4550000  
H 14.3250000   18.9670000   18.7300000  
C 14.7910000   22.6060000   21.5660000  
C 15.5110000   23.4470000   20.6650000  
C 15.3410000   24.8070000   20.7020000  
C 14.3950000   25.4530000   21.4630000  
C 13.6610000   24.6080000   22.3460000  
C 13.8710000   23.2590000   22.4260000  
C 16.5280000   23.1900000   19.6030000  
C 17.0120000   24.4310000   19.1530000  
N 16.3440000   25.4270000   19.9040000  
O 18.6900000   23.5590000   17.6890000  
C 18.1550000   24.6600000   18.2250000  
O 18.6130000   25.7460000   17.9060000  
O 12.9630000   25.1960000   23.3350000  
O 13.1830000   22.5490000   23.3470000  
H 16.7910000   22.2040000   19.2550000  
H 18.0900000   22.8190000   17.8050000  
H 16.6080000   26.4670000   19.8980000  
H 12.2460000   24.5260000   23.4740000  
H 13.4010000   21.5890000   23.1310000  
H 14.3870000   26.5350000   21.4700000  
