76
000 
C 15.9670000   13.8940000   28.3130000  
C 15.2900000   12.6590000   27.9030000  
C 14.6830000   12.5140000   26.6870000  
C 14.7480000   13.4770000   25.6740000  
C 15.4520000   14.6430000   25.8460000  
C 16.1440000   14.9440000   27.1280000  
C 13.7690000   11.5430000   26.1260000  
C 13.2510000   11.9430000   24.8650000  
N 13.9950000   13.1510000   24.6170000  
O 11.7950000    9.9850000   24.5710000  
C 12.2550000   11.1890000   24.1060000  
O 11.8460000   11.6360000   23.0570000  
O 16.7700000   15.9640000   27.3790000  
O 16.5810000   13.9800000   29.3780000  
H 15.1340000   11.9130000   28.6370000  
H 13.4410000   10.6080000   26.5580000  
H 12.2800000    9.7480000   25.4010000  
H 13.9010000   13.7620000   23.8540000  
C 15.5440000   15.4890000   24.6950000  
C 14.4980000   16.3810000   24.3890000  
C 14.5960000   17.1680000   23.3120000  
C 15.7430000   17.1860000   22.4370000  
C 16.7390000   16.2410000   22.7020000  
C 16.6970000   15.4190000   23.8450000  
C 13.1820000   16.5480000   24.9460000  
C 12.5800000   17.6120000   24.2090000  
N 13.4820000   17.9280000   23.1380000  
O 10.5150000   17.3190000   25.1700000  
C 11.2010000   18.0020000   24.2710000  
O 10.6570000   18.8970000   23.6560000  
O 17.7880000   16.1840000   21.8660000  
O 17.7570000   14.5640000   24.1130000  
H 12.7460000   15.9570000   25.7030000  
H 11.1240000   16.8140000   25.6700000  
H 13.3200000   18.7460000   22.5480000  
H 17.7200000   16.9680000   21.2400000  
H 18.2630000   14.5720000   23.2950000  
C 15.8710000   18.0790000   21.2340000  
C 16.9050000   19.0970000   21.1840000  
C 16.8870000   20.0070000   20.2240000  
C 16.0210000   19.9970000   19.1340000  
C 15.0180000   19.0190000   19.1760000  
C 14.9530000   18.0800000   20.1850000  
C 18.0070000   19.4790000   22.1760000  
C 18.5770000   20.6580000   21.5980000  
N 17.8670000   20.9490000   20.4280000  
O 20.2920000   21.0060000   23.2820000  
C 19.7440000   21.4780000   22.0830000  
O 20.2250000   22.4100000   21.4380000  
O 14.0880000   19.0090000   18.1760000  
O 14.0470000   17.0880000   20.1380000  
H 18.2460000   18.9930000   23.0670000  
H 19.7210000   20.2860000   23.4840000  
H 18.0390000   21.6410000   19.6980000  
H 14.4400000   19.7290000   17.5970000  
H 13.5310000   17.2300000   19.3980000  
C 16.0210000   21.0060000   18.1410000  
C 16.6710000   20.7680000   16.8890000  
C 16.5120000   21.6180000   15.8290000  
C 15.8880000   22.8650000   15.8730000  
C 15.2660000   23.1820000   17.1120000  
C 15.2930000   22.2290000   18.1840000  
C 17.3390000   19.5600000   16.3820000  
C 17.6850000   19.8380000   15.0290000  
N 17.2410000   21.1510000   14.7710000  
O 18.9120000   18.0070000   14.5940000  
C 18.2660000   18.9880000   14.0750000  
O 18.2140000   19.2470000   12.8810000  
O 14.6480000   24.3290000   17.2640000  
O 14.7580000   22.5490000   19.4520000  
H 17.5290000   18.6330000   16.9020000  
H 18.8870000   18.2330000   15.5330000  
H 17.5230000   21.6840000   13.9880000  
H 14.3940000   24.4660000   18.1630000  
H 14.9790000   21.7950000   20.0750000  
H 15.8690000   23.4770000   14.9910000  
