76
000 
C 16.4540000   16.4790000   29.1750000  
C 15.0650000   16.2360000   29.6090000  
C 14.0210000   16.1610000   28.7060000  
C 14.2460000   16.4150000   27.2970000  
C 15.4840000   16.6460000   26.7850000  
C 16.6950000   16.5890000   27.6000000  
C 12.6560000   15.9910000   28.8120000  
C 12.0180000   16.0510000   27.5420000  
N 13.0320000   16.3480000   26.6520000  
O  9.8420000   15.6310000   28.4420000  
C 10.5870000   15.7720000   27.3140000  
O 10.1300000   15.7270000   26.1840000  
O 17.8400000   16.6330000   27.1190000  
O 17.3620000   16.6450000   29.9050000  
H 14.9520000   16.2400000   30.6910000  
H 12.1270000   15.8290000   29.7880000  
H 10.4980000   15.6810000   29.1880000  
H 13.0390000   16.3570000   25.6230000  
C 15.5100000   16.6860000   25.2900000  
C 14.8950000   17.7150000   24.6350000  
C 15.0730000   17.7760000   23.2820000  
C 15.8190000   16.9550000   22.4500000  
C 16.3900000   15.8530000   23.1360000  
C 16.2040000   15.7400000   24.5600000  
C 14.0790000   18.8530000   25.0050000  
C 13.6580000   19.5060000   23.8550000  
N 14.3100000   18.7920000   22.8000000  
O 12.2200000   21.0890000   24.8920000  
C 12.7220000   20.6380000   23.7040000  
O 12.4610000   21.2430000   22.6820000  
O 17.3180000   15.0560000   22.5630000  
O 16.8110000   14.6680000   25.1940000  
H 13.8100000   19.2030000   26.0690000  
H 12.5920000   20.6110000   25.5930000  
H 14.0910000   19.0000000   21.8290000  
H 17.2760000   14.9330000   21.6250000  
H 17.4520000   14.2400000   24.6330000  
C 15.9910000   17.2020000   20.9590000  
C 16.5710000   18.4000000   20.5030000  
C 16.4640000   18.7130000   19.1910000  
C 15.9800000   17.8540000   18.2240000  
C 15.5280000   16.5410000   18.6620000  
C 15.5890000   16.1990000   20.0520000  
C 17.1530000   19.5250000   21.1870000  
C 17.4160000   20.4590000   20.1890000  
N 17.0360000   19.9720000   18.9390000  
O 18.5170000   21.8700000   21.6580000  
C 18.2130000   21.7060000   20.3940000  
O 18.5590000   22.5320000   19.5660000  
O 14.9990000   15.6490000   17.7520000  
O 15.2130000   14.9360000   20.4530000  
H 17.3570000   19.6670000   22.2470000  
H 18.0730000   21.1330000   22.0820000  
H 17.2880000   20.3560000   18.0360000  
H 14.9560000   15.9350000   16.7290000  
H 15.2140000   14.2550000   19.7420000  
C 15.8510000   18.1800000   16.7610000  
C 16.8060000   17.6780000   15.8800000  
C 16.9210000   18.0730000   14.5810000  
C 16.0820000   19.0550000   14.0730000  
C 15.1860000   19.7340000   14.9490000  
C 15.1640000   19.3290000   16.3510000  
C 17.7600000   16.6120000   16.0090000  
C 18.4430000   16.4560000   14.8020000  
N 17.9050000   17.3890000   13.9150000  
O 19.9920000   14.6680000   15.4740000  
C 19.5510000   15.4950000   14.4970000  
O 19.9960000   15.3930000   13.3980000  
O 14.4470000   20.8130000   14.4680000  
O 14.3510000   20.0470000   17.1640000  
H 17.9860000   16.1150000   17.0020000  
H 19.4290000   15.0430000   16.1670000  
H 18.1480000   17.4560000   12.8990000  
H 14.0060000   21.2690000   15.1560000  
H 14.2990000   19.6780000   18.0600000  
H 16.2250000   19.2420000   13.0300000  
