76
000 
C 15.5290000   15.3600000   29.0210000  
C 14.7860000   14.1800000   28.9090000  
C 14.1190000   13.8450000   27.7610000  
C 14.3560000   14.5280000   26.5950000  
C 15.2590000   15.5490000   26.4510000  
C 15.7980000   16.1300000   27.6730000  
C 13.3490000   12.7070000   27.4050000  
C 13.2950000   12.6690000   26.0140000  
N 13.8570000   13.8150000   25.5760000  
O 12.2160000   10.5070000   25.6570000  
C 12.8020000   11.5940000   25.0840000  
O 12.8900000   11.6730000   23.8970000  
O 16.4820000   17.1660000   27.6330000  
O 15.8740000   15.7870000   30.1170000  
H 14.6210000   13.5990000   29.7820000  
H 12.9600000   12.0410000   28.0500000  
H 12.1240000   10.6500000   26.6390000  
H 14.0150000   13.9510000   24.6110000  
C 15.4090000   16.1240000   25.1450000  
C 14.6170000   17.2200000   24.7290000  
C 14.7580000   17.6940000   23.4660000  
C 15.6200000   17.3230000   22.4940000  
C 16.4040000   16.1920000   22.8680000  
C 16.3510000   15.7000000   24.2160000  
C 13.5220000   17.8140000   25.4140000  
C 13.0170000   18.6630000   24.4560000  
N 13.8240000   18.7130000   23.3400000  
O 11.2420000   19.5320000   25.7620000  
C 11.8080000   19.4870000   24.5200000  
O 11.2780000   19.9360000   23.5150000  
O 17.2610000   15.6040000   21.9610000  
O 17.1310000   14.6040000   24.5790000  
H 13.1560000   17.7010000   26.4430000  
H 11.8300000   18.9150000   26.3130000  
H 13.6370000   19.2330000   22.4780000  
H 17.3460000   16.1800000   21.2410000  
H 17.5610000   14.2940000   23.7380000  
C 15.7020000   18.0390000   21.1450000  
C 16.5960000   19.0510000   20.9240000  
C 16.6220000   19.5810000   19.6480000  
C 15.8150000   19.2790000   18.5150000  
C 14.8940000   18.2720000   18.8040000  
C 14.8710000   17.6250000   20.0870000  
C 17.6720000   19.6250000   21.7850000  
C 18.2620000   20.5940000   20.9150000  
N 17.6140000   20.6020000   19.6460000  
O 19.9220000   21.0920000   22.5320000  
C 19.4510000   21.3470000   21.2730000  
O 19.9680000   22.1850000   20.5500000  
O 14.0220000   17.8730000   17.8940000  
O 13.9400000   16.6140000   20.2610000  
H 17.9550000   19.3360000   22.7670000  
H 19.2910000   20.3790000   22.8170000  
H 17.9960000   21.1560000   18.8870000  
H 13.9440000   18.6240000   17.2480000  
H 13.4080000   16.5770000   19.3870000  
C 16.0780000   20.0670000   17.2760000  
C 16.4670000   19.4960000   16.0940000  
C 16.7530000   20.2760000   14.9870000  
C 16.5910000   21.6500000   14.9440000  
C 16.1850000   22.2940000   16.0840000  
C 15.9230000   21.4810000   17.2340000  
C 16.8110000   18.1350000   15.7890000  
C 17.4840000   18.1620000   14.5950000  
N 17.3410000   19.4850000   14.0150000  
O 17.7400000   15.7940000   14.5730000  
C 18.2000000   16.9730000   14.0390000  
O 19.1060000   17.0600000   13.2470000  
O 15.9910000   23.6730000   15.9980000  
O 15.4650000   22.2140000   18.3020000  
H 16.7150000   17.3340000   16.5150000  
H 17.0290000   16.0340000   15.1840000  
H 17.9380000   19.8860000   13.3050000  
H 15.5120000   24.0270000   16.8260000  
H 15.3790000   21.6470000   19.0980000  
H 16.7730000   22.1730000   14.0170000  
