76
000 
C 18.5340000   10.7060000   21.1770000  
C 17.6560000   10.0970000   20.1130000  
C 16.7860000   10.8630000   19.4370000  
C 16.5250000   12.1500000   19.6880000  
C 17.1700000   12.8970000   20.7000000  
C 18.1890000   12.1510000   21.5810000  
C 15.8640000   10.5090000   18.4650000  
C 15.0650000   11.6070000   18.1330000  
N 15.4690000   12.6090000   18.9890000  
O 13.6950000   10.6560000   16.5270000  
C 13.9730000   11.7430000   17.1890000  
O 13.2940000   12.7540000   17.0180000  
O 18.6500000   12.6700000   22.5780000  
O 19.3960000   10.1660000   21.8180000  
H 17.7170000    8.9930000   19.9470000  
H 15.7930000    9.5440000   18.0600000  
H 14.3550000   10.0730000   16.8210000  
H 15.0370000   13.5040000   19.1260000  
C 16.6560000   14.2430000   20.8950000  
C 15.4340000   14.5200000   21.5530000  
C 14.9620000   15.7700000   21.7550000  
C 15.6390000   16.9650000   21.2990000  
C 16.8040000   16.6480000   20.5360000  
C 17.3310000   15.3500000   20.3700000  
C 14.5180000   13.5870000   22.1930000  
C 13.4900000   14.4550000   22.7530000  
N 13.7620000   15.8320000   22.4170000  
O 12.2510000   12.6960000   23.7440000  
C 12.2630000   14.0010000   23.4450000  
O 11.4660000   14.7790000   23.9080000  
O 17.5680000   17.7320000   20.1020000  
O 18.5380000   15.1310000   19.7400000  
H 14.6230000   12.5200000   22.3250000  
H 12.7670000   12.4130000   23.0700000  
H 13.1320000   16.5990000   22.5530000  
H 17.1680000   18.6150000   20.2010000  
H 19.1030000   15.8440000   19.9150000  
C 15.2020000   18.3470000   21.6530000  
C 15.7380000   19.1070000   22.7240000  
C 15.3570000   20.3350000   22.9470000  
C 14.5200000   21.1190000   22.1480000  
C 13.8640000   20.3930000   21.0910000  
C 14.2300000   18.9800000   20.8860000  
C 16.7490000   18.6940000   23.6700000  
C 16.8620000   19.8040000   24.5090000  
N 16.0230000   20.8100000   23.9850000  
O 18.3890000   19.0270000   26.2830000  
C 17.5550000   19.9790000   25.8600000  
O 17.3300000   20.9730000   26.5740000  
O 13.0320000   21.0430000   20.2100000  
O 13.8120000   18.3100000   19.7650000  
H 17.1420000   17.6950000   23.8510000  
H 18.4720000   18.4670000   25.4780000  
H 15.9200000   21.7290000   24.4090000  
H 13.0900000   22.0430000   20.3980000  
H 13.1190000   18.8830000   19.3280000  
C 14.2190000   22.4890000   22.3860000  
C 15.2940000   23.4040000   22.3290000  
C 15.2040000   24.7460000   22.5850000  
C 13.9750000   25.2980000   23.0730000  
C 12.8750000   24.3740000   23.2830000  
C 13.0190000   23.0270000   22.9300000  
C 16.6480000   23.1430000   22.0070000  
C 17.2550000   24.4030000   21.9270000  
N 16.3740000   25.4230000   22.2260000  
O 19.3760000   23.5730000   21.1900000  
C 18.5930000   24.6580000   21.4290000  
O 19.0060000   25.7770000   21.2370000  
O 11.6290000   24.7910000   23.7570000  
O 11.9850000   22.1690000   23.0260000  
H 17.0950000   22.1470000   21.6670000  
H 18.7690000   22.8770000   21.2590000  
H 16.5040000   26.4130000   21.9640000  
H 11.0750000   24.0270000   23.6270000  
H 12.3550000   21.2720000   23.1040000  
H 13.7900000   26.2990000   23.3520000  
