76
000 
C 16.1910000   23.0650000   27.2320000  
C 14.8710000   23.0320000   27.8480000  
C 13.9350000   22.0910000   27.4220000  
C 14.2490000   21.1580000   26.4560000  
C 15.3840000   21.1040000   25.6760000  
C 16.4810000   22.0020000   26.0670000  
C 12.6600000   21.6110000   27.9030000  
C 12.1580000   20.5790000   27.1890000  
N 13.1830000   20.3580000   26.2240000  
O 10.3650000   20.2200000   28.5580000  
C 10.8760000   19.8430000   27.3830000  
O 10.3890000   19.0830000   26.6010000  
O 17.5970000   21.8810000   25.6220000  
O 16.9950000   23.8410000   27.5670000  
H 14.6630000   23.7000000   28.6650000  
H 12.1100000   22.0760000   28.7330000  
H 11.0270000   20.7810000   28.9850000  
H 13.2510000   19.5260000   25.6540000  
C 15.5840000   20.1030000   24.6490000  
C 15.5800000   20.4160000   23.3210000  
C 15.6030000   19.3800000   22.3850000  
C 15.5390000   17.9610000   22.6580000  
C 15.7460000   17.7110000   23.9970000  
C 15.7560000   18.7640000   24.9990000  
C 15.4000000   21.6600000   22.5570000  
C 15.3800000   21.2820000   21.1950000  
N 15.5910000   19.9390000   21.1160000  
O 14.5190000   23.3530000   20.3910000  
C 14.8420000   22.1330000   20.0560000  
O 14.8080000   21.8300000   18.8830000  
O 15.8420000   16.3760000   24.3500000  
O 15.9720000   18.4350000   26.2960000  
H 15.0580000   22.6260000   22.9090000  
H 14.6730000   23.4290000   21.3400000  
H 15.5360000   19.3410000   20.2910000  
H 15.5000000   15.8520000   23.6600000  
H 16.2920000   17.4950000   26.3660000  
C 15.5420000   16.9680000   21.5770000  
C 16.6130000   16.8670000   20.6480000  
C 16.6110000   16.1140000   19.5150000  
C 15.5190000   15.3040000   19.1160000  
C 14.3710000   15.4290000   19.9780000  
C 14.4140000   16.2110000   21.1960000  
C 17.8760000   17.5590000   20.5540000  
C 18.6230000   17.0780000   19.4520000  
N 17.7730000   16.2080000   18.7720000  
O 20.4710000   18.5020000   19.5570000  
C 19.9030000   17.5270000   18.9040000  
O 20.5330000   16.9890000   18.0090000  
O 13.2580000   14.7590000   19.7170000  
O 13.3750000   16.2360000   22.0610000  
H 18.2970000   18.3900000   21.2060000  
H 19.9060000   18.6200000   20.3320000  
H 17.9630000   15.6110000   18.0160000  
H 13.5120000   14.0430000   19.1040000  
H 12.5930000   15.6510000   21.8960000  
C 15.5200000   14.5680000   17.8310000  
C 16.2290000   13.4010000   17.7410000  
C 16.2440000   12.6020000   16.5760000  
C 15.6280000   13.0010000   15.3280000  
C 14.8320000   14.1390000   15.4660000  
C 14.7240000   14.8840000   16.6800000  
C 16.9680000   12.6000000   18.7450000  
C 17.3860000   11.4030000   18.1090000  
N 16.9130000   11.4400000   16.7940000  
O 18.8010000   10.5620000   19.9150000  
C 18.1790000   10.2730000   18.7410000  
O 18.4710000    9.1840000   18.2600000  
O 14.2350000   14.6410000   14.3580000  
O 14.1270000   16.1160000   16.6730000  
H 17.2530000   13.0170000   19.6840000  
H 18.6300000   11.4630000   20.1670000  
H 16.9210000   10.6780000   16.1790000  
H 13.8320000   15.4380000   14.6470000  
H 14.4030000   16.6340000   17.4840000  
H 15.7230000   12.5170000   14.3910000  
