76
000 
C 16.2650000   13.1560000   27.7020000  
C 15.2590000   12.1000000   27.5220000  
C 14.7240000   11.9630000   26.2490000  
C 14.8880000   12.8750000   25.2580000  
C 15.6820000   14.0150000   25.3080000  
C 16.4490000   14.2620000   26.5380000  
C 13.7690000   10.9770000   25.7950000  
C 13.3490000   11.3970000   24.5210000  
N 14.1150000   12.5520000   24.2130000  
O 11.7510000    9.7330000   24.1370000  
C 12.3770000   10.7500000   23.5560000  
O 12.1830000   11.1680000   22.4490000  
O 17.0010000   15.3420000   26.7660000  
O 16.9610000   13.1570000   28.6980000  
H 15.3140000   11.2220000   28.1710000  
H 13.4810000   10.1160000   26.3840000  
H 12.3080000    9.4740000   24.8810000  
H 14.0480000   13.0140000   23.3260000  
C 15.6040000   14.9610000   24.1940000  
C 14.5570000   15.9630000   24.1500000  
C 14.5840000   16.8780000   23.1760000  
C 15.5600000   17.0260000   22.1970000  
C 16.5490000   15.9690000   22.1050000  
C 16.4970000   14.9180000   23.0710000  
C 13.4860000   16.2030000   25.0470000  
C 12.9290000   17.4150000   24.5540000  
N 13.6140000   17.9070000   23.4000000  
O 11.1900000   17.5610000   26.1540000  
C 11.7780000   18.1400000   25.1240000  
O 11.4620000   19.2540000   24.8250000  
O 17.3650000   15.9440000   21.0110000  
O 17.4220000   13.9000000   22.8970000  
H 13.1730000   15.6790000   25.9100000  
H 11.6490000   16.7630000   26.2950000  
H 13.3560000   18.6190000   22.7370000  
H 17.0340000   16.6400000   20.3610000  
H 17.9140000   14.2290000   22.1570000  
C 15.4440000   18.1000000   21.1700000  
C 16.5000000   19.0020000   21.0670000  
C 16.4190000   20.0030000   20.1440000  
C 15.3890000   20.1880000   19.2500000  
C 14.4650000   19.1050000   19.1960000  
C 14.4280000   18.1460000   20.1850000  
C 17.6580000   19.3350000   21.8980000  
C 18.2200000   20.5240000   21.4250000  
N 17.3560000   20.9540000   20.4170000  
O 20.2110000   20.5780000   22.7770000  
C 19.4800000   21.2620000   21.8490000  
O 19.9260000   22.2680000   21.2890000  
O 13.5400000   19.0580000   18.1940000  
O 13.3730000   17.2920000   20.2150000  
H 18.1250000   18.8880000   22.7630000  
H 19.6870000   19.7710000   22.9820000  
H 17.4680000   21.9260000   20.0140000  
H 13.8950000   19.6910000   17.6070000  
H 12.9160000   17.5570000   19.4710000  
C 15.4600000   21.3250000   18.2530000  
C 16.6120000   21.4960000   17.4650000  
C 16.6750000   22.5000000   16.4670000  
C 15.7860000   23.5440000   16.4390000  
C 14.6900000   23.4990000   17.2950000  
C 14.5290000   22.4390000   18.1800000  
C 17.7750000   20.6570000   17.2720000  
C 18.4760000   21.1840000   16.1800000  
N 17.8060000   22.3110000   15.6260000  
O 20.1570000   19.5030000   16.2190000  
C 19.6120000   20.4560000   15.4720000  
O 20.0680000   20.7880000   14.3710000  
O 13.7030000   24.4820000   17.2150000  
O 13.4550000   22.4180000   19.0740000  
H 18.0280000   19.6880000   17.8890000  
H 19.6810000   19.5160000   17.0660000  
H 18.2480000   22.9120000   14.9520000  
H 12.9750000   24.2170000   17.7970000  
H 13.6770000   21.7230000   19.7970000  
H 15.8570000   24.3650000   15.6810000  
