76
000 
C 15.9530000   17.2050000   29.4270000  
C 14.6130000   16.6820000   29.7620000  
C 13.7050000   16.4180000   28.7630000  
C 13.9170000   16.7400000   27.4190000  
C 15.0330000   17.2780000   26.9070000  
C 16.1690000   17.5000000   27.8510000  
C 12.5220000   15.6330000   28.8160000  
C 11.9200000   15.6720000   27.5450000  
N 12.8570000   16.3080000   26.7030000  
O  9.8940000   14.6240000   28.2550000  
C 10.5590000   15.1520000   27.2010000  
O 10.0510000   15.1590000   26.0970000  
O 17.2410000   17.7860000   27.4560000  
O 16.8440000   17.3660000   30.2670000  
H 14.5360000   16.2000000   30.7390000  
H 12.1280000   15.1750000   29.7080000  
H 10.5810000   14.7490000   28.9790000  
H 12.6970000   16.2840000   25.7040000  
C 15.1890000   17.4120000   25.4530000  
C 14.7070000   18.4440000   24.7200000  
C 14.8660000   18.4620000   23.3280000  
C 15.4550000   17.4480000   22.5400000  
C 15.9490000   16.3580000   23.3160000  
C 15.8460000   16.3610000   24.7310000  
C 13.8660000   19.5530000   25.0340000  
C 13.5350000   20.1890000   23.8280000  
N 14.1870000   19.5710000   22.7740000  
O 12.2710000   22.0110000   24.9280000  
C 12.7290000   21.5060000   23.7620000  
O 12.5850000   22.0630000   22.7280000  
O 16.5260000   15.3450000   22.5980000  
O 16.3850000   15.3500000   25.4200000  
H 13.7250000   20.0250000   26.0160000  
H 12.6240000   21.5210000   25.6210000  
H 14.0970000   19.8380000   21.7780000  
H 16.5960000   15.6220000   21.6150000  
H 16.8610000   14.7120000   24.9300000  
C 15.7400000   17.5840000   20.9930000  
C 16.8080000   18.3680000   20.4910000  
C 16.9650000   18.5670000   19.1650000  
C 16.2640000   17.8890000   18.1560000  
C 15.1820000   17.0720000   18.5450000  
C 14.8930000   16.9530000   19.9410000  
C 17.7760000   19.2330000   21.1510000  
C 18.5370000   19.8440000   20.1150000  
N 18.0560000   19.3470000   18.8850000  
O 19.8810000   21.1010000   21.5020000  
C 19.6440000   20.7450000   20.2340000  
O 20.2940000   21.0980000   19.2730000  
O 14.4470000   16.4230000   17.5850000  
O 13.9730000   16.0560000   20.3110000  
H 17.8850000   19.3180000   22.2300000  
H 19.3630000   20.4900000   22.0970000  
H 18.4680000   19.4450000   18.0090000  
H 14.7990000   16.6270000   16.7250000  
H 13.1980000   16.1160000   19.6540000  
C 16.6110000   18.1580000   16.7370000  
C 17.1010000   17.1600000   15.8710000  
C 17.3260000   17.3430000   14.4840000  
C 17.1550000   18.5840000   13.8940000  
C 16.7680000   19.6360000   14.7650000  
C 16.5050000   19.4190000   16.1450000  
C 17.4580000   15.7410000   16.1550000  
C 17.7150000   15.2210000   14.8960000  
N 17.7340000   16.2300000   13.9040000  
O 17.9850000   12.9560000   15.6320000  
C 17.9310000   13.8040000   14.5660000  
O 18.0670000   13.4250000   13.4420000  
O 16.5130000   20.8420000   14.1040000  
O 16.0220000   20.4280000   16.8740000  
H 17.4110000   15.1850000   17.0920000  
H 18.0510000   13.4440000   16.4600000  
H 17.8200000   16.1490000   12.8870000  
H 16.3760000   21.4550000   14.7690000  
H 15.7910000   20.1190000   17.7540000  
H 17.2940000   18.7630000   12.8660000  
