76
000 
C 16.9300000   23.6090000   26.1830000  
C 15.7200000   23.7320000   26.9880000  
C 14.7140000   22.8730000   26.8760000  
C 14.6210000   21.8960000   25.8780000  
C 15.6760000   21.6600000   24.9990000  
C 16.9110000   22.4580000   25.0370000  
C 13.5650000   22.6730000   27.7300000  
C 12.8530000   21.5440000   27.2340000  
N 13.5160000   21.1120000   26.1210000  
O 11.2770000   21.5570000   28.9680000  
C 11.6520000   20.9460000   27.8370000  
O 11.0530000   20.0210000   27.2590000  
O 17.8360000   22.2170000   24.3240000  
O 17.8950000   24.3180000   26.3570000  
H 15.6390000   24.4860000   27.7860000  
H 13.3740000   23.2780000   28.5790000  
H 11.8380000   22.3120000   29.0510000  
H 13.2270000   20.3450000   25.5860000  
C 15.5360000   20.4950000   24.1210000  
C 15.2790000   20.6680000   22.7690000  
C 15.2130000   19.5960000   21.8710000  
C 15.3970000   18.2670000   22.2060000  
C 15.5910000   18.0610000   23.5990000  
C 15.6510000   19.1460000   24.5470000  
C 15.2540000   21.8600000   21.9650000  
C 15.2110000   21.4170000   20.6110000  
N 15.0220000   20.0060000   20.5620000  
O 15.4130000   23.5900000   19.6510000  
C 15.3510000   22.2470000   19.3990000  
O 15.1780000   21.8020000   18.2730000  
O 15.8980000   16.7980000   24.0590000  
O 16.2550000   18.9130000   25.7860000  
H 15.2570000   22.9060000   22.4030000  
H 15.5480000   23.7550000   20.5420000  
H 14.7640000   19.5170000   19.7090000  
H 15.8110000   16.0980000   23.3680000  
H 17.0810000   18.3490000   25.6380000  
C 15.3450000   17.2540000   21.0920000  
C 16.2930000   17.0910000   20.0650000  
C 16.3840000   15.9920000   19.2870000  
C 15.3920000   14.9900000   19.3080000  
C 14.3290000   15.1330000   20.2460000  
C 14.3820000   16.2260000   21.2070000  
C 17.4650000   17.8800000   19.6790000  
C 18.1220000   17.2100000   18.6280000  
N 17.3850000   16.1030000   18.3160000  
O 19.7890000   18.7570000   18.2480000  
C 19.2810000   17.5850000   17.8200000  
O 19.6780000   16.9210000   16.8890000  
O 13.3900000   14.1170000   20.3730000  
O 13.4540000   16.2930000   22.2140000  
H 17.7150000   18.8790000   19.9950000  
H 19.2640000   19.1610000   18.9740000  
H 17.5700000   15.4890000   17.5030000  
H 13.5860000   13.3520000   19.8310000  
H 12.5980000   16.1080000   21.8330000  
C 15.5440000   13.7480000   18.4310000  
C 16.0460000   12.5260000   18.9000000  
C 16.1660000   11.4570000   18.0050000  
C 15.8010000   11.5570000   16.6740000  
C 15.2240000   12.7760000   16.2050000  
C 15.1920000   13.8440000   17.0540000  
C 16.2600000   12.0170000   20.2240000  
C 16.5390000   10.6630000   20.0490000  
N 16.4740000   10.3110000   18.6540000  
O 16.6780000   10.0990000   22.4320000  
C 16.7940000    9.6340000   21.1300000  
O 16.9630000    8.4590000   20.9030000  
O 14.7830000   12.7620000   14.9310000  
O 14.9070000   15.0580000   16.4250000  
H 16.2680000   12.6050000   21.1340000  
H 16.8500000   11.0000000   22.3800000  
H 16.3590000    9.3790000   18.3190000  
H 14.3940000   13.7050000   14.7180000  
H 14.7650000   15.5930000   17.1680000  
H 15.8500000   10.7340000   15.9250000  
