76
000 
C 20.5160000   16.3090000   15.8950000  
C 19.5810000   15.8980000   14.8030000  
C 18.2300000   15.8520000   15.0410000  
C 17.6490000   16.3950000   16.1640000  
C 18.3880000   16.9020000   17.2530000  
C 19.9280000   16.8630000   17.2310000  
C 17.0820000   15.4880000   14.2130000  
C 15.8750000   15.6480000   14.9950000  
N 16.2670000   16.2460000   16.1380000  
O 14.1460000   14.9370000   13.4730000  
C 14.4420000   15.4360000   14.7130000  
O 13.5750000   15.6780000   15.5440000  
O 20.6700000   17.1500000   18.1580000  
O 21.6960000   16.4520000   15.6370000  
H 20.0670000   15.6750000   13.8490000  
H 17.2180000   15.0740000   13.2310000  
H 14.9510000   14.8150000   13.0930000  
H 15.6230000   16.6570000   16.8170000  
C 17.5810000   17.4690000   18.3090000  
C 16.7140000   16.6140000   19.0030000  
C 16.0860000   17.0440000   20.1500000  
C 16.1030000   18.3270000   20.7070000  
C 16.9350000   19.2050000   19.9540000  
C 17.6590000   18.7880000   18.7670000  
C 16.4110000   15.1760000   18.9770000  
C 15.5830000   14.8900000   20.0800000  
N 15.3300000   16.0820000   20.7950000  
O 15.2900000   12.5790000   19.4820000  
C 14.8770000   13.6050000   20.2750000  
O 13.9840000   13.5460000   21.1220000  
O 17.0530000   20.5590000   20.2420000  
O 18.4520000   19.7450000   18.0870000  
H 16.7280000   14.5430000   18.1940000  
H 15.9130000   12.9880000   18.7470000  
H 14.8270000   16.2150000   21.6400000  
H 16.2830000   21.0010000   20.7510000  
H 18.3580000   20.5820000   18.6290000  
C 15.4010000   18.7200000   21.9580000  
C 15.4510000   17.9650000   23.1430000  
C 14.6490000   18.3010000   24.1970000  
C 13.7400000   19.3320000   24.2740000  
C 13.7940000   20.1940000   23.1220000  
C 14.5930000   19.9030000   21.9750000  
C 16.0860000   16.7470000   23.5900000  
C 15.5760000   16.3920000   24.8720000  
N 14.5640000   17.2920000   25.1830000  
O 17.0870000   14.4730000   25.0250000  
C 16.1230000   15.2680000   25.6510000  
O 15.7790000   15.0290000   26.7990000  
O 13.0130000   21.3450000   23.1460000  
O 14.3300000   20.7010000   20.8780000  
H 16.8240000   16.2270000   23.0550000  
H 16.9260000   14.6160000   24.1300000  
H 14.0640000   17.3700000   26.0790000  
H 12.6990000   21.4230000   24.0960000  
H 13.4750000   21.2600000   21.0770000  
C 12.9920000   19.6250000   25.5280000  
C 13.7370000   19.7490000   26.7160000  
C 13.0810000   19.8430000   27.9110000  
C 11.6580000   20.0020000   27.9540000  
C 10.9290000   19.8320000   26.7550000  
C 11.5780000   19.6740000   25.5480000  
C 15.1460000   19.7030000   26.9530000  
C 15.2790000   19.8740000   28.3250000  
N 13.9910000   20.0910000   28.9020000  
O 17.5890000   19.8180000   28.5020000  
C 16.4820000   20.1080000   29.1300000  
O 16.4440000   20.4260000   30.2950000  
O  9.5750000   19.9310000   26.8440000  
O 10.8500000   19.4860000   24.3640000  
H 15.9600000   19.6560000   26.2390000  
H 17.3360000   19.3970000   27.6760000  
H 13.8250000   20.5070000   29.7970000  
H  9.1880000   19.2840000   26.2800000  
H 11.4550000   19.2020000   23.6700000  
H 11.0720000   20.2680000   28.8570000  
