76
000 
C 17.5190000   24.0240000   25.5700000  
C 16.2110000   24.6290000   25.6540000  
C 15.0860000   23.8990000   25.2500000  
C 15.1020000   22.5490000   24.8820000  
C 16.3050000   21.9230000   24.6470000  
C 17.5670000   22.5180000   25.1700000  
C 13.6970000   24.3500000   25.2180000  
C 12.9710000   23.2490000   24.7500000  
N 13.8630000   22.1990000   24.5540000  
O 10.8200000   24.3220000   24.7340000  
C 11.5250000   23.1580000   24.5200000  
O 10.9410000   22.1250000   24.1500000  
O 18.6020000   21.9170000   25.2560000  
O 18.5490000   24.6120000   25.8240000  
H 16.2080000   25.6620000   26.0520000  
H 13.4210000   25.4070000   25.4510000  
H 11.5200000   24.9310000   25.0870000  
H 13.7230000   21.2190000   24.2160000  
C 16.1170000   20.6910000   23.9100000  
C 15.9160000   20.6200000   22.5420000  
C 15.8050000   19.3540000   21.9090000  
C 15.8870000   18.0880000   22.5360000  
C 16.1970000   18.1620000   23.9170000  
C 16.3650000   19.4120000   24.5260000  
C 15.7230000   21.7560000   21.6130000  
C 15.5050000   21.0470000   20.4210000  
N 15.5570000   19.6380000   20.5930000  
O 14.8440000   23.0160000   19.1940000  
C 15.0380000   21.6640000   19.1450000  
O 14.8790000   21.1290000   18.0510000  
O 16.3310000   17.0640000   24.6980000  
O 16.7040000   19.4230000   25.8540000  
H 15.5690000   22.7520000   21.8460000  
H 14.8620000   23.1630000   20.1320000  
H 15.3630000   18.9330000   19.8830000  
H 16.2270000   16.2370000   24.1870000  
H 16.9070000   18.4690000   26.0090000  
C 15.6320000   16.8630000   21.6830000  
C 16.3430000   16.5830000   20.5340000  
C 16.1620000   15.4510000   19.8560000  
C 15.2500000   14.5310000   20.1520000  
C 14.5240000   14.6770000   21.3560000  
C 14.6920000   15.8910000   22.1440000  
C 17.2640000   17.3430000   19.7630000  
C 17.5570000   16.5840000   18.6340000  
N 16.9350000   15.3980000   18.7290000  
O 19.1720000   18.0120000   17.6770000  
C 18.4470000   16.9430000   17.4910000  
O 18.5020000   16.2270000   16.4770000  
O 13.6520000   13.7480000   21.7790000  
O 13.9120000   16.1350000   23.2350000  
H 17.6380000   18.3390000   19.9840000  
H 19.1870000   18.1520000   18.6880000  
H 17.0560000   14.6090000   18.0830000  
H 13.8000000   13.0300000   21.1570000  
H 13.5410000   15.2820000   23.3240000  
C 15.0970000   13.3060000   19.3390000  
C 15.4280000   12.0760000   19.9390000  
C 15.2310000   10.8520000   19.3510000  
C 14.6360000   10.8560000   18.0520000  
C 14.3110000   12.0420000   17.4400000  
C 14.4950000   13.2580000   18.0750000  
C 16.1440000   11.7370000   21.1830000  
C 16.3860000   10.3550000   21.2170000  
N 15.9010000    9.7980000   20.0420000  
O 17.4650000   10.2250000   23.3330000  
C 17.0340000    9.5540000   22.2830000  
O 17.2900000    8.3410000   22.2170000  
O 13.8270000   11.9680000   16.1950000  
O 14.0080000   14.4410000   17.5560000  
H 16.4970000   12.4620000   21.9420000  
H 17.1880000   11.1800000   23.2340000  
H 16.1290000    8.8970000   19.6380000  
H 13.8050000   12.7990000   15.8550000  
H 13.9870000   15.0830000   18.3290000  
H 14.5400000    9.8510000   17.6200000  
