76
000 
C 17.4460000   19.3440000   28.8420000  
C 16.3110000   20.1310000   29.3280000  
C 15.2830000   20.4720000   28.5150000  
C 15.1720000   19.9830000   27.2360000  
C 16.0480000   19.1220000   26.6090000  
C 17.2690000   18.8050000   27.3240000  
C 14.0790000   21.1840000   28.7830000  
C 13.2020000   21.0310000   27.6380000  
N 13.9840000   20.3850000   26.6990000  
O 11.1860000   21.9380000   28.5200000  
C 11.8160000   21.4000000   27.4450000  
O 11.2150000   21.3710000   26.3750000  
O 18.1340000   18.1530000   26.8400000  
O 18.4190000   18.9860000   29.5090000  
H 16.2830000   20.3540000   30.4090000  
H 13.8480000   21.6370000   29.7510000  
H 11.7740000   21.9100000   29.2970000  
H 13.7120000   20.2040000   25.7660000  
C 15.7930000   18.7360000   25.2550000  
C 16.0520000   19.5720000   24.1350000  
C 15.8680000   19.1190000   22.8360000  
C 15.4500000   17.8260000   22.5010000  
C 15.2100000   16.9510000   23.6150000  
C 15.3710000   17.4080000   24.9950000  
C 16.5730000   20.9540000   24.0420000  
C 16.6860000   21.1840000   22.6720000  
N 16.2100000   20.0860000   21.9160000  
O 17.6390000   23.4230000   23.1010000  
C 17.3110000   22.4900000   22.1830000  
O 17.5360000   22.7450000   21.0360000  
O 14.9890000   15.6230000   23.3890000  
O 15.0710000   16.6190000   26.0630000  
H 16.8930000   21.6410000   24.8670000  
H 17.3510000   23.0410000   23.9290000  
H 16.2660000   19.9270000   20.9390000  
H 15.1250000   15.3910000   22.4340000  
H 15.1280000   15.6920000   25.6950000  
C 15.3200000   17.1760000   21.1300000  
C 16.4820000   16.9830000   20.3000000  
C 16.3290000   16.5980000   19.0250000  
C 15.1040000   16.4130000   18.3940000  
C 13.9500000   16.7120000   19.1440000  
C 14.0430000   17.0610000   20.4940000  
C 17.8930000   16.9670000   20.5200000  
C 18.4520000   16.6580000   19.3260000  
N 17.4760000   16.2540000   18.4070000  
O 20.7300000   16.7410000   20.1760000  
C 19.9260000   16.4800000   19.1270000  
O 20.4160000   16.0980000   18.0910000  
O 12.7640000   16.6460000   18.5470000  
O 12.9540000   17.4550000   21.2140000  
H 18.3920000   17.4280000   21.3450000  
H 20.0450000   16.9540000   20.8500000  
H 17.6430000   15.9210000   17.3920000  
H 12.9960000   16.4150000   17.6750000  
H 12.1440000   17.7000000   20.6050000  
C 14.9740000   15.9550000   16.9930000  
C 14.7540000   14.6400000   16.6680000  
C 14.6000000   14.2980000   15.3590000  
C 14.7030000   15.1730000   14.2400000  
C 14.9500000   16.5170000   14.5480000  
C 15.0860000   16.8840000   15.9110000  
C 14.5690000   13.4820000   17.4690000  
C 14.6200000   12.4030000   16.6210000  
N 14.4510000   12.9370000   15.2920000  
O 14.8500000   10.7790000   18.2590000  
C 14.7740000   10.9570000   16.9200000  
O 14.8220000    9.9920000   16.2030000  
O 14.8980000   17.4710000   13.5200000  
O 15.3540000   18.2150000   16.1240000  
H 14.6150000   13.4210000   18.4850000  
H 14.7040000   11.6290000   18.7610000  
H 14.2680000   12.3750000   14.4300000  
H 14.8100000   16.9740000   12.7240000  
H 15.2330000   18.4830000   15.2260000  
H 14.5280000   14.8770000   13.2080000  
