76
000 
C 17.5760000   23.2770000   26.3580000  
C 16.8530000   24.4570000   25.9620000  
C 16.1030000   24.3690000   24.8530000  
C 15.8950000   23.1720000   24.1960000  
C 16.4110000   21.9300000   24.4730000  
C 17.3520000   21.8960000   25.6400000  
C 15.3000000   25.3860000   24.1970000  
C 14.6200000   24.7490000   23.1400000  
N 15.0210000   23.4120000   23.1880000  
O 13.5680000   26.7440000   22.2000000  
C 13.6690000   25.3740000   22.2000000  
O 13.1730000   24.6820000   21.3540000  
O 17.8570000   20.8590000   26.0950000  
O 18.4880000   23.5000000   27.1070000  
H 17.0210000   25.3950000   26.5090000  
H 15.2590000   26.4140000   24.4260000  
H 14.2260000   27.0250000   22.8230000  
H 14.6940000   22.7290000   22.5450000  
C 15.8710000   20.7800000   23.7060000  
C 16.3680000   20.5240000   22.4130000  
C 15.9670000   19.4610000   21.6910000  
C 15.2020000   18.3850000   22.1880000  
C 14.7700000   18.5820000   23.5050000  
C 15.0430000   19.7820000   24.2800000  
C 17.3460000   21.1390000   21.6700000  
C 17.4300000   20.4750000   20.4680000  
N 16.6180000   19.3610000   20.5160000  
O 19.0180000   21.8910000   19.4900000  
C 18.3080000   20.8080000   19.3210000  
O 18.3430000   20.2840000   18.2070000  
O 13.9190000   17.6450000   24.1130000  
O 14.6880000   19.7360000   25.5840000  
H 18.0100000   21.8870000   22.0500000  
H 19.0120000   22.1010000   20.4200000  
H 16.4190000   18.8240000   19.6870000  
H 13.9220000   16.7960000   23.6140000  
H 14.3130000   18.8690000   25.7620000  
C 14.8270000   17.1670000   21.3180000  
C 15.8600000   16.2890000   20.8840000  
C 15.5900000   15.0750000   20.2960000  
C 14.3080000   14.6390000   19.9770000  
C 13.2520000   15.5530000   20.3700000  
C 13.4960000   16.7530000   21.0190000  
C 17.3390000   16.3820000   20.9880000  
C 17.8210000   15.2340000   20.3230000  
N 16.7200000   14.4500000   19.9300000  
O 20.0800000   15.8040000   20.7330000  
C 19.2470000   14.8880000   20.2370000  
O 19.6180000   13.7820000   19.9360000  
O 11.9090000   15.1220000   20.2900000  
O 12.4340000   17.5120000   21.4740000  
H 18.0180000   17.0970000   21.4630000  
H 19.5910000   16.6330000   20.9840000  
H 16.8060000   13.7300000   19.2470000  
H 11.9540000   14.3440000   19.5850000  
H 11.6710000   17.0170000   21.2310000  
C 14.0060000   13.2800000   19.4380000  
C 14.3350000   12.1000000   20.1580000  
C 14.0590000   10.8680000   19.6610000  
C 13.4260000   10.6530000   18.4180000  
C 13.1070000   11.7960000   17.6400000  
C 13.4090000   13.0690000   18.1820000  
C 15.0290000   11.8860000   21.3800000  
C 15.1760000   10.4810000   21.4630000  
N 14.5510000    9.8590000   20.4500000  
O 16.2990000   10.5710000   23.5490000  
C 15.8700000    9.7120000   22.5690000  
O 16.0220000    8.5070000   22.5700000  
O 12.6130000   11.6860000   16.3880000  
O 13.1610000   14.0930000   17.3170000  
H 15.5660000   12.5970000   22.0030000  
H 16.1480000   11.5040000   23.2190000  
H 14.7910000    8.9320000   20.2800000  
H 12.3830000   10.7280000   16.2570000  
H 13.0290000   13.6350000   16.4390000  
H 13.2080000    9.6540000   18.1390000  
