76
000 
C 18.8640000   22.9350000   17.2180000  
C 17.9470000   22.9040000   16.0830000  
C 16.9810000   21.9840000   15.9790000  
C 16.6700000   21.1040000   16.9780000  
C 17.4100000   20.9890000   18.1570000  
C 18.6210000   21.9060000   18.2970000  
C 15.9960000   21.8400000   14.9770000  
C 15.1550000   20.7900000   15.3760000  
N 15.5590000   20.3410000   16.6220000  
O 13.7690000   20.9910000   13.5280000  
C 14.0480000   20.2580000   14.6020000  
O 13.4070000   19.2610000   14.9200000  
O 19.2790000   21.7940000   19.3020000  
O 19.8940000   23.6450000   17.2200000  
H 18.0930000   23.5620000   15.2570000  
H 15.9640000   22.4110000   14.1140000  
H 14.3120000   21.8390000   13.6080000  
H 15.2000000   19.5500000   17.1840000  
C 16.8980000   20.0990000   19.1280000  
C 16.9750000   18.6690000   19.0470000  
C 16.4410000   17.9590000   20.0680000  
C 15.8250000   18.4490000   21.2150000  
C 15.7690000   19.8890000   21.3030000  
C 16.3400000   20.6850000   20.3000000  
C 17.4640000   17.8040000   18.0290000  
C 17.1970000   16.5560000   18.5170000  
N 16.5470000   16.6360000   19.7210000  
O 18.2790000   15.4560000   16.8090000  
C 17.6190000   15.2930000   17.9590000  
O 17.3370000   14.1870000   18.3840000  
O 15.1050000   20.4560000   22.3380000  
O 16.4390000   22.0850000   20.3760000  
H 18.0020000   18.0240000   17.1120000  
H 18.5640000   16.3990000   16.9250000  
H 16.1190000   15.8360000   20.1670000  
H 14.4000000   19.7430000   22.5870000  
H 15.8220000   22.2520000   21.1260000  
C 15.2550000   17.4480000   22.2070000  
C 16.1070000   16.6340000   22.9020000  
C 15.6450000   15.6610000   23.7770000  
C 14.2750000   15.5010000   24.1040000  
C 13.4140000   16.4090000   23.4140000  
C 13.8660000   17.3800000   22.4950000  
C 17.5010000   16.7600000   23.1740000  
C 17.8570000   15.7450000   24.0770000  
N 16.6530000   15.1820000   24.5820000  
O 20.2850000   16.0840000   24.1300000  
C 19.2200000   15.3780000   24.5730000  
O 19.2410000   14.6470000   25.5470000  
O 12.1140000   16.3100000   23.6140000  
O 12.9120000   18.1350000   21.8930000  
H 18.1590000   17.4710000   22.6740000  
H 20.0190000   16.4840000   23.2880000  
H 16.5070000   14.5170000   25.3500000  
H 11.9760000   15.8050000   24.4270000  
H 12.0530000   17.7020000   22.0900000  
C 13.7780000   14.5960000   25.2180000  
C 13.2980000   15.1750000   26.4380000  
C 12.7650000   14.3370000   27.4080000  
C 12.6970000   12.9680000   27.2320000  
C 13.0860000   12.3620000   26.0160000  
C 13.7250000   13.1720000   25.0650000  
C 13.1740000   16.5080000   27.0140000  
C 12.7300000   16.4090000   28.3190000  
N 12.3980000   15.0880000   28.5710000  
O 13.2940000   18.6430000   29.1310000  
C 12.7890000   17.3920000   29.3620000  
O 12.3590000   17.1060000   30.4650000  
O 12.8310000   11.0240000   25.9080000  
O 14.0140000   12.6900000   23.7800000  
H 13.4100000   17.4590000   26.5240000  
H 13.5960000   18.5490000   28.2180000  
H 12.2370000   14.5990000   29.4010000  
H 12.5350000   10.7430000   26.7850000  
H 13.6680000   11.8080000   23.6420000  
H 12.1950000   12.3390000   27.9820000  
