76
000 
C 18.9830000   20.8300000   15.5080000  
C 18.4820000   22.1940000   15.6760000  
C 17.6470000   22.4600000   16.7150000  
C 17.2550000   21.5450000   17.6820000  
C 17.6170000   20.2350000   17.6680000  
C 18.5850000   19.8020000   16.6070000  
C 17.0460000   23.7000000   17.0620000  
C 16.3020000   23.4500000   18.1860000  
N 16.5020000   22.1950000   18.5660000  
O 15.1460000   25.6050000   18.2430000  
C 15.3970000   24.3910000   18.8270000  
O 14.7510000   24.1170000   19.8420000  
O 19.1460000   18.7160000   16.6660000  
O 19.6880000   20.4870000   14.5860000  
H 18.7520000   22.8900000   14.8770000  
H 17.1130000   24.6440000   16.5760000  
H 15.6470000   25.6490000   17.4360000  
H 16.0780000   21.8270000   19.4150000  
C 17.1810000   19.3870000   18.8360000  
C 16.4140000   18.2850000   18.5930000  
C 15.8140000   17.6200000   19.6010000  
C 16.0720000   17.9380000   20.9680000  
C 16.8880000   19.0380000   21.2470000  
C 17.5020000   19.7370000   20.1790000  
C 15.8430000   17.7070000   17.4120000  
C 14.8680000   16.7750000   17.7780000  
N 14.9440000   16.5970000   19.1850000  
O 13.9350000   16.3450000   15.6180000  
C 14.0120000   15.9310000   16.9000000  
O 13.1980000   15.0960000   17.3410000  
O 17.1030000   19.3830000   22.5710000  
O 18.4100000   20.7390000   20.4810000  
H 16.0190000   18.1020000   16.4490000  
H 14.6540000   17.0270000   15.6180000  
H 14.3850000   15.9270000   19.7370000  
H 16.7520000   18.6730000   23.1620000  
H 18.4410000   20.7920000   21.4290000  
C 15.4430000   17.1920000   22.1380000  
C 16.2450000   16.2450000   22.7670000  
C 15.6830000   15.5020000   23.7130000  
C 14.3360000   15.5570000   24.1660000  
C 13.5730000   16.6240000   23.6470000  
C 14.1420000   17.3760000   22.6240000  
C 17.5070000   15.6430000   22.4850000  
C 17.5820000   14.4810000   23.2110000  
N 16.4390000   14.4160000   23.9630000  
O 19.6830000   13.8600000   22.3540000  
C 18.7380000   13.5330000   23.2840000  
O 18.9190000   12.7130000   24.1570000  
O 12.2810000   16.8110000   24.0140000  
O 13.4150000   18.4480000   22.1060000  
H 18.1840000   15.9270000   21.6630000  
H 19.2240000   14.5210000   21.8040000  
H 16.2630000   13.7970000   24.7390000  
H 12.1870000   16.3610000   24.9030000  
H 12.7670000   18.6970000   22.8030000  
C 13.8300000   14.6640000   25.2560000  
C 13.5410000   15.2470000   26.4730000  
C 13.2870000   14.4870000   27.6010000  
C 13.0700000   13.1240000   27.5330000  
C 13.1290000   12.4920000   26.2620000  
C 13.5480000   13.2440000   25.1500000  
C 13.7060000   16.6260000   26.8710000  
C 13.3550000   16.6990000   28.1590000  
N 13.0620000   15.3710000   28.6450000  
O 13.5120000   19.0200000   28.3610000  
C 13.2880000   17.8290000   29.0400000  
O 12.9490000   17.7290000   30.2380000  
O 12.8980000   11.1630000   26.0720000  
O 13.5850000   12.5410000   23.9450000  
H 13.9080000   17.4650000   26.2160000  
H 13.9450000   18.7460000   27.5950000  
H 12.6830000   15.0700000   29.5980000  
H 12.8770000   10.8480000   25.1610000  
H 14.0580000   12.9950000   23.2030000  
H 12.6350000   12.6100000   28.3620000  
