76
000 
C 16.8670000   10.9560000   17.8590000  
C 15.6370000   11.1820000   17.1030000  
C 14.9000000   12.3040000   17.3770000  
C 15.2800000   13.2480000   18.3400000  
C 16.4830000   13.1930000   19.0820000  
C 17.3760000   12.0500000   18.8350000  
C 13.5810000   12.6400000   16.9550000  
C 13.2600000   13.8700000   17.5030000  
N 14.2920000   14.2210000   18.4040000  
O 11.1080000   13.8720000   16.7340000  
C 11.9870000   14.6420000   17.4020000  
O 11.7610000   15.7020000   17.9800000  
O 18.4590000   11.9180000   19.2990000  
O 17.5030000    9.9210000   17.5850000  
H 15.3120000   10.3480000   16.4310000  
H 12.9380000   12.0290000   16.3160000  
H 11.6470000   13.1320000   16.4730000  
H 14.3590000   15.0190000   18.9420000  
C 16.7380000   14.3330000   19.9700000  
C 16.5250000   14.1910000   21.3320000  
C 16.4830000   15.2500000   22.1240000  
C 16.6010000   16.5690000   21.7430000  
C 17.0340000   16.7430000   20.4230000  
C 17.1700000   15.6010000   19.5500000  
C 16.1700000   13.0700000   22.1560000  
C 15.8740000   13.5360000   23.3940000  
N 16.0510000   14.9480000   23.3910000  
O 15.3940000   11.3430000   24.2030000  
C 15.4480000   12.6120000   24.5230000  
O 14.9410000   12.9380000   25.5680000  
O 17.1060000   17.9940000   19.8030000  
O 17.3970000   15.9200000   18.2500000  
H 16.0520000   12.0330000   21.7910000  
H 15.8660000   11.3200000   23.3540000  
H 16.0330000   15.5450000   24.1910000  
H 16.4400000   18.5860000   20.2480000  
H 17.4340000   16.8810000   18.1840000  
C 16.1550000   17.7440000   22.5560000  
C 16.9460000   18.8720000   22.8160000  
C 16.4920000   20.0210000   23.3880000  
C 15.1290000   20.1550000   23.7360000  
C 14.2370000   19.0850000   23.4910000  
C 14.7520000   17.9210000   22.8970000  
C 18.3780000   19.1740000   22.5250000  
C 18.6500000   20.4920000   22.9890000  
N 17.4090000   21.0300000   23.4470000  
O 20.9460000   20.4830000   22.5130000  
C 19.9120000   21.2280000   23.0120000  
O 20.0590000   22.3230000   23.5160000  
O 12.8670000   19.2410000   23.7630000  
O 13.9380000   16.9390000   22.4260000  
H 19.1040000   18.5700000   22.0540000  
H 20.4870000   19.6290000   22.3520000  
H 17.2830000   21.9960000   23.7420000  
H 12.9030000   20.0310000   24.3750000  
H 12.9910000   17.1310000   22.6060000  
C 14.5910000   21.3840000   24.2950000  
C 14.6580000   22.6530000   23.6670000  
C 14.0370000   23.7630000   24.1840000  
C 13.4450000   23.7730000   25.4260000  
C 13.5120000   22.6420000   26.1620000  
C 14.1230000   21.4520000   25.6590000  
C 15.2030000   23.0140000   22.3690000  
C 14.9380000   24.3690000   22.1650000  
N 14.1400000   24.7940000   23.2840000  
O 16.0700000   24.8990000   20.0260000  
C 15.3680000   25.3320000   21.1150000  
O 15.0770000   26.4680000   21.2970000  
O 12.8660000   22.6560000   27.3400000  
O 13.9880000   20.2820000   26.4270000  
H 15.6450000   22.2690000   21.6900000  
H 15.9250000   23.9220000   20.0430000  
H 13.8990000   25.7880000   23.4830000  
H 12.6710000   23.6050000   27.5510000  
H 13.3750000   20.4480000   27.1420000  
H 12.9320000   24.7180000   25.7380000  
