76
000 
C 17.6570000   11.6660000   16.9410000  
C 16.8050000   12.2880000   15.8930000  
C 16.2960000   13.5210000   16.1470000  
C 16.3670000   14.1700000   17.3560000  
C 17.0600000   13.7280000   18.4390000  
C 17.7220000   12.4100000   18.3640000  
C 15.4270000   14.2680000   15.3010000  
C 15.0880000   15.4430000   16.0430000  
N 15.6770000   15.3140000   17.2940000  
O 13.9560000   16.3750000   14.1100000  
C 14.2240000   16.4900000   15.4020000  
O 13.6750000   17.3630000   16.0230000  
O 18.3650000   12.0060000   19.3350000  
O 18.2720000   10.6260000   16.7020000  
H 16.7480000   11.7240000   14.8990000  
H 15.1550000   13.9990000   14.2880000  
H 14.4580000   15.6870000   13.7210000  
H 15.7190000   16.0470000   18.0290000  
C 17.0590000   14.5910000   19.5950000  
C 16.3890000   14.2040000   20.7750000  
C 16.1650000   15.2020000   21.6600000  
C 16.5370000   16.5330000   21.6030000  
C 17.3320000   16.8150000   20.4790000  
C 17.5880000   15.8730000   19.5200000  
C 15.4310000   13.1290000   21.0020000  
C 14.5790000   13.6520000   21.9390000  
N 15.0870000   14.8480000   22.4330000  
O 13.0420000   11.8260000   21.8430000  
C 13.4070000   12.9750000   22.4070000  
O 12.7540000   13.4210000   23.2880000  
O 17.7230000   18.0920000   20.2470000  
O 18.3690000   16.2070000   18.4200000  
H 15.1510000   12.2170000   20.3960000  
H 13.6950000   11.5100000   21.1540000  
H 14.7700000   15.2660000   23.2240000  
H 17.4950000   18.6210000   21.0400000  
H 18.9010000   16.9970000   18.6040000  
C 16.0240000   17.6250000   22.4810000  
C 16.6560000   18.0730000   23.6700000  
C 16.0590000   19.0380000   24.4810000  
C 14.7960000   19.6700000   24.2690000  
C 14.2500000   19.3100000   23.0370000  
C 14.8340000   18.3180000   22.1730000  
C 17.9390000   17.8360000   24.1440000  
C 18.1160000   18.7170000   25.2280000  
N 16.9000000   19.4360000   25.5310000  
O 20.5770000   18.6690000   25.3120000  
C 19.3850000   19.0660000   25.8350000  
O 19.3850000   19.8330000   26.7970000  
O 13.2170000   20.0890000   22.5770000  
O 14.0600000   17.9500000   21.0950000  
H 18.6380000   17.1850000   23.7150000  
H 20.2680000   18.1210000   24.5590000  
H 16.7640000   20.2040000   26.1450000  
H 12.7900000   20.5360000   23.3090000  
H 13.2070000   18.4690000   21.0960000  
C 14.1590000   20.7920000   25.1000000  
C 14.1770000   22.1580000   24.6480000  
C 13.7200000   23.2410000   25.4290000  
C 13.1280000   22.9660000   26.6630000  
C 13.1620000   21.6650000   27.1380000  
C 13.6290000   20.5920000   26.3820000  
C 14.5220000   22.7700000   23.3800000  
C 14.2590000   24.1440000   23.4450000  
N 13.5810000   24.3780000   24.6820000  
O 15.4340000   24.9810000   21.4300000  
C 14.5780000   25.2550000   22.4520000  
O 14.2550000   26.4140000   22.6600000  
O 12.6710000   21.4240000   28.4050000  
O 13.6220000   19.2780000   26.8340000  
H 15.0140000   22.2040000   22.5990000  
H 15.7000000   24.1080000   21.5010000  
H 13.3230000   25.2950000   25.0120000  
H 12.5880000   20.4740000   28.5650000  
H 13.9120000   18.8170000   26.0740000  
H 12.6090000   23.7790000   27.1130000  
