76
000 
C 17.0890000   13.2500000   27.5610000  
C 15.7440000   12.9600000   28.1340000  
C 14.6510000   13.1690000   27.3450000  
C 14.6640000   13.7880000   26.1370000  
C 15.8150000   14.0930000   25.5000000  
C 17.1510000   13.9020000   26.0720000  
C 13.3240000   12.8940000   27.6870000  
C 12.4790000   13.4360000   26.6820000  
N 13.3670000   14.0030000   25.7620000  
O 10.5640000   12.9450000   27.8510000  
C 10.9820000   13.4060000   26.6730000  
O 10.2200000   13.7420000   25.7350000  
O 18.2210000   14.2880000   25.5440000  
O 18.1370000   12.9660000   28.0890000  
H 15.7050000   12.5910000   29.1470000  
H 13.0280000   12.4080000   28.6440000  
H 11.3560000   12.7450000   28.3990000  
H 13.0740000   14.6020000   24.9980000  
C 15.6470000   14.9220000   24.3420000  
C 15.9280000   16.3190000   24.4150000  
C 15.8600000   17.0380000   23.2810000  
C 15.4410000   16.5740000   21.9770000  
C 15.2090000   15.1960000   21.9270000  
C 15.2780000   14.3880000   23.0330000  
C 16.5200000   17.1750000   25.4450000  
C 16.5110000   18.4710000   24.8730000  
N 16.0670000   18.3850000   23.4960000  
O 17.5180000   19.4450000   26.7180000  
C 17.0790000   19.6490000   25.4640000  
O 16.8320000   20.7360000   24.9750000  
O 14.8460000   14.8010000   20.6710000  
O 15.0350000   13.0740000   22.9960000  
H 16.7420000   16.9680000   26.5250000  
H 17.3760000   18.5360000   26.8810000  
H 15.8130000   19.1710000   22.8730000  
H 14.6320000   15.5830000   20.2070000  
H 14.9890000   12.6310000   22.1590000  
C 15.3790000   17.5560000   20.8630000  
C 16.5020000   18.3970000   20.4930000  
C 16.3400000   19.4200000   19.5460000  
C 15.1050000   19.8050000   18.9950000  
C 14.0250000   19.0110000   19.3620000  
C 14.1030000   17.9950000   20.3410000  
C 17.8890000   18.4110000   20.8780000  
C 18.5520000   19.4190000   20.1620000  
N 17.6010000   20.0000000   19.2930000  
O 20.6450000   19.2250000   21.2820000  
C 19.9720000   19.7880000   20.2950000  
O 20.5380000   20.6060000   19.6350000  
O 12.8370000   19.3200000   18.8210000  
O 12.9250000   17.3790000   20.6440000  
H 18.3980000   17.7170000   21.5710000  
H 20.0850000   18.5680000   21.7050000  
H 17.7430000   20.8240000   18.7360000  
H 12.9900000   19.9740000   18.0850000  
H 12.2710000   18.1170000   20.4850000  
C 14.9820000   20.9030000   18.0260000  
C 15.6120000   20.8200000   16.7710000  
C 15.4450000   21.8680000   15.8450000  
C 14.7590000   23.0770000   16.1290000  
C 14.2960000   23.2110000   17.4220000  
C 14.5540000   22.2110000   18.4330000  
C 16.1510000   19.6400000   16.1110000  
C 16.3000000   20.0110000   14.7520000  
N 15.8750000   21.3690000   14.6110000  
O 17.0250000   17.8570000   14.0690000  
C 16.7240000   19.1030000   13.6590000  
O 16.7430000   19.4540000   12.5000000  
O 13.6610000   24.3660000   17.7960000  
O 14.1080000   22.4000000   19.6470000  
H 16.4400000   18.7240000   16.5130000  
H 16.9370000   17.8770000   15.0320000  
H 15.6900000   21.8090000   13.6870000  
H 13.4320000   24.2680000   18.7300000  
H 14.2670000   21.5980000   20.1580000  
H 14.5370000   23.8360000   15.3640000  
