76
000 
C 18.3350000   24.6100000   20.2760000  
C 17.6940000   24.9050000   18.9330000  
C 16.7900000   24.0540000   18.3680000  
C 16.4380000   22.8500000   19.0580000  
C 16.9970000   22.4130000   20.2070000  
C 17.8970000   23.2670000   20.9720000  
C 16.1660000   24.0010000   17.0370000  
C 15.4450000   22.8000000   16.9610000  
N 15.6630000   22.1370000   18.1850000  
O 14.5170000   23.1110000   14.8460000  
C 14.6260000   22.2430000   15.8620000  
O 14.1840000   21.1480000   15.8870000  
O 18.3160000   23.0420000   22.0930000  
O 19.1300000   25.3830000   20.7530000  
H 17.9500000   25.8180000   18.4260000  
H 16.2940000   24.7500000   16.2010000  
H 14.8180000   23.8990000   15.2530000  
H 15.2640000   21.2450000   18.5030000  
C 16.3970000   21.1890000   20.6210000  
C 16.8230000   19.9940000   20.1230000  
C 16.1730000   18.8070000   20.4940000  
C 15.2640000   18.7920000   21.5370000  
C 14.9330000   20.0370000   22.1620000  
C 15.3930000   21.2240000   21.6270000  
C 17.9090000   19.7330000   19.2220000  
C 17.8900000   18.3460000   19.0280000  
N 16.7640000   17.7570000   19.7690000  
O 19.7320000   18.1660000   17.4200000  
C 18.7710000   17.5490000   18.1340000  
O 18.7630000   16.3260000   18.1580000  
O 14.0060000   20.0910000   23.2040000  
O 15.0360000   22.3730000   22.2590000  
H 18.6510000   20.4510000   18.8970000  
H 19.4640000   19.0970000   17.1910000  
H 16.5910000   16.7680000   19.8030000  
H 13.8110000   19.2000000   23.4360000  
H 14.7680000   22.1870000   23.1730000  
C 14.7620000   17.4460000   22.0130000  
C 15.6350000   16.5500000   22.6000000  
C 15.1300000   15.4280000   23.0780000  
C 13.8030000   14.8800000   22.9450000  
C 12.9010000   15.7610000   22.3600000  
C 13.3590000   17.0720000   21.9510000  
C 17.0700000   16.5040000   22.6400000  
C 17.3640000   15.2610000   23.1890000  
N 16.1510000   14.5600000   23.4410000  
O 19.7850000   15.3140000   23.2120000  
C 18.6440000   14.5680000   23.4360000  
O 18.6570000   13.4140000   23.8260000  
O 11.6070000   15.5140000   22.3360000  
O 12.5590000   17.8340000   21.2020000  
H 17.8080000   17.1860000   22.2380000  
H 19.4990000   16.1490000   22.8190000  
H 16.0210000   13.6580000   23.7470000  
H 11.4420000   14.8340000   23.0470000  
H 11.6950000   17.4480000   21.1940000  
C 13.3810000   13.5770000   23.4950000  
C 13.8350000   13.0720000   24.7390000  
C 13.5950000   11.8120000   25.1450000  
C 12.9090000   10.8770000   24.3600000  
C 12.5430000   11.2510000   23.0530000  
C 12.8260000   12.5710000   22.6400000  
C 14.3240000   13.7270000   25.9110000  
C 14.4140000   12.7550000   26.9360000  
N 13.8950000   11.5260000   26.4540000  
O 15.2520000   14.2980000   28.6340000  
C 14.8400000   13.0500000   28.3210000  
O 14.8080000   12.2120000   29.1770000  
O 11.9360000   10.3870000   22.2160000  
O 12.6040000   12.9000000   21.3440000  
H 14.5630000   14.7770000   25.9280000  
H 15.2100000   14.8280000   27.8250000  
H 13.7710000   10.6340000   26.9100000  
H 12.1110000    9.5640000   22.7650000  
H 12.2020000   12.1550000   21.0260000  
H 12.5900000    9.8620000   24.7820000  
