76
000 
C 17.2080000   24.8210000   23.7050000  
C 16.0460000   25.6890000   23.1990000  
C 14.9700000   25.0700000   22.6150000  
C 14.9440000   23.7120000   22.3500000  
C 15.8830000   22.8020000   22.7320000  
C 17.0860000   23.2170000   23.4340000  
C 13.9540000   25.6390000   21.7910000  
C 13.3810000   24.5690000   21.0250000  
N 14.0040000   23.4160000   21.4500000  
O 11.7830000   25.8730000   19.8220000  
C 12.3640000   24.6640000   19.9250000  
O 12.0920000   23.6950000   19.1880000  
O 17.8620000   22.4220000   23.8880000  
O 18.0890000   25.3320000   24.3900000  
H 16.1280000   26.7570000   23.3390000  
H 13.7160000   26.6960000   21.6490000  
H 12.0310000   26.3380000   20.6500000  
H 13.8910000   22.5190000   21.1250000  
C 15.5530000   21.4130000   22.4980000  
C 16.3220000   20.6290000   21.6390000  
C 16.0940000   19.2970000   21.3790000  
C 15.0680000   18.5800000   21.9930000  
C 14.3380000   19.3230000   23.0200000  
C 14.5990000   20.7260000   23.2640000  
C 17.5930000   20.9060000   20.9970000  
C 17.9720000   19.7620000   20.3080000  
N 16.9740000   18.8030000   20.4570000  
O 19.9790000   20.6540000   19.4480000  
C 19.1340000   19.6050000   19.4390000  
O 19.3510000   18.5660000   18.8670000  
O 13.4620000   18.6880000   23.8490000  
O 13.8790000   21.4350000   24.2590000  
H 17.9990000   21.8760000   20.8920000  
H 19.5740000   21.3760000   19.9430000  
H 16.9100000   17.8270000   20.1940000  
H 13.1410000   17.9590000   23.2840000  
H 13.1240000   20.8830000   24.5980000  
C 14.8190000   17.1190000   21.7290000  
C 15.9190000   16.2370000   21.8150000  
C 15.7100000   14.9340000   21.5560000  
C 14.5820000   14.3620000   20.9680000  
C 13.4580000   15.2360000   20.9950000  
C 13.5640000   16.6300000   21.3450000  
C 17.3010000   16.3080000   22.3020000  
C 17.8430000   15.0600000   22.2680000  
N 16.8830000   14.1970000   21.8160000  
O 20.0750000   15.6440000   22.8650000  
C 19.1970000   14.6060000   22.5120000  
O 19.5570000   13.4130000   22.4710000  
O 12.2670000   14.7400000   20.6670000  
O 12.5370000   17.4570000   21.1490000  
H 17.7730000   17.2120000   22.6870000  
H 19.6690000   16.4910000   22.6290000  
H 16.9720000   13.2430000   21.5710000  
H 12.5030000   13.8410000   20.3970000  
H 11.8390000   16.9660000   20.7270000  
C 14.4880000   12.8860000   20.5200000  
C 15.0060000   11.8870000   21.4200000  
C 15.2270000   10.6020000   20.9570000  
C 14.9330000   10.1270000   19.6680000  
C 14.3370000   11.0900000   18.7770000  
C 14.2900000   12.4820000   19.1500000  
C 15.1780000   11.8060000   22.8810000  
C 15.5940000   10.4910000   23.2110000  
N 15.6950000    9.8390000   22.0390000  
O 15.7380000   10.8240000   25.4980000  
C 15.8700000    9.9280000   24.5480000  
O 16.2200000    8.8020000   24.7900000  
O 14.1250000   10.7370000   17.4730000  
O 13.9490000   13.5150000   18.2090000  
H 14.9700000   12.6110000   23.5410000  
H 15.2920000   11.5330000   25.1430000  
H 16.1500000    8.9570000   21.8840000  
H 14.7570000   10.0310000   17.1710000  
H 14.0030000   13.0420000   17.3410000  
H 15.1640000    9.0980000   19.3320000  
