76
000 
C 18.8640000   22.0930000   16.2770000  
C 17.9650000   21.8400000   15.1350000  
C 16.8830000   21.0390000   15.2330000  
C 16.6160000   20.3860000   16.4200000  
C 17.3330000   20.5750000   17.6070000  
C 18.4960000   21.4230000   17.6810000  
C 15.9990000   20.4620000   14.2070000  
C 15.1810000   19.5260000   14.8680000  
N 15.5810000   19.5540000   16.1860000  
O 14.0470000   18.7500000   12.9590000  
C 14.2090000   18.6340000   14.2490000  
O 13.5880000   17.7760000   14.8980000  
O 19.2420000   21.5190000   18.6410000  
O 19.9120000   22.7500000   16.1550000  
H 18.3460000   22.3470000   14.2820000  
H 16.0310000   20.6860000   13.1630000  
H 14.5550000   19.4810000   12.6200000  
H 15.1290000   18.9350000   16.8320000  
C 16.7820000   19.9210000   18.8260000  
C 16.8730000   18.5520000   18.9080000  
C 16.4240000   17.9280000   20.0160000  
C 15.8660000   18.5910000   21.1340000  
C 15.8780000   20.0050000   21.0520000  
C 16.4370000   20.6890000   19.9560000  
C 17.3170000   17.5490000   17.9900000  
C 16.9850000   16.3260000   18.5460000  
N 16.3920000   16.5380000   19.8220000  
O 17.9180000   15.1570000   16.8300000  
C 17.3940000   14.9950000   18.0250000  
O 17.3290000   13.9400000   18.6320000  
O 15.5850000   20.6900000   22.2120000  
O 16.3960000   22.0850000   19.8350000  
H 17.9330000   17.7610000   17.1160000  
H 17.3160000   15.8370000   16.4690000  
H 15.9360000   15.9030000   20.4950000  
H 15.1880000   19.9830000   22.7810000  
H 16.2560000   22.3970000   20.7280000  
C 15.3280000   17.8040000   22.2700000  
C 16.1590000   16.9620000   23.0870000  
C 15.6590000   16.3540000   24.2390000  
C 14.2410000   16.2480000   24.6200000  
C 13.4080000   16.9560000   23.7190000  
C 13.9270000   17.7110000   22.5960000  
C 17.5600000   16.7330000   23.2560000  
C 17.8020000   16.0040000   24.4460000  
N 16.5350000   15.8010000   25.0320000  
O 20.1320000   15.9100000   24.1820000  
C 19.0970000   15.5350000   24.9610000  
O 19.2500000   14.9320000   26.0230000  
O 12.0110000   17.1190000   23.9890000  
O 13.0520000   18.4090000   21.8380000  
H 18.3130000   17.1210000   22.5720000  
H 19.8000000   16.2600000   23.3220000  
H 16.4240000   15.5590000   26.0090000  
H 11.8580000   17.1070000   24.9180000  
H 12.1960000   18.0770000   22.1130000  
C 13.7640000   15.3420000   25.7580000  
C 13.3330000   15.8930000   26.9940000  
C 12.9330000   15.0490000   28.0440000  
C 12.9400000   13.6440000   27.9160000  
C 13.2450000   13.0820000   26.6350000  
C 13.7060000   13.8940000   25.5890000  
C 13.0680000   17.2560000   27.3680000  
C 12.6790000   17.1530000   28.7210000  
N 12.4530000   15.7920000   29.0700000  
O 13.2170000   19.4210000   29.0820000  
C 12.6910000   18.2760000   29.6140000  
O 12.2530000   18.2260000   30.7340000  
O 13.0380000   11.7540000   26.4840000  
O 13.9900000   13.3430000   24.3350000  
H 13.4400000   18.1470000   26.8890000  
H 13.6730000   19.0460000   28.2950000  
H 12.2180000   15.4910000   30.0280000  
H 12.6660000   11.3850000   27.2440000  
H 13.5580000   12.4200000   24.3790000  
H 12.5610000   12.9600000   28.6470000  
