76
000 
C 16.8810000   14.9240000   28.7730000  
C 15.6540000   15.3230000   29.4320000  
C 14.7260000   15.9660000   28.6440000  
C 14.8670000   16.2210000   27.3360000  
C 15.9390000   15.8210000   26.6260000  
C 17.1010000   15.1450000   27.2900000  
C 13.3760000   16.3990000   28.8700000  
C 12.8500000   17.0150000   27.7850000  
N 13.7900000   16.8080000   26.7990000  
O 10.8740000   17.8210000   28.7710000  
C 11.5930000   17.7210000   27.6550000  
O 11.1240000   18.1550000   26.6310000  
O 18.0470000   14.7790000   26.6380000  
O 17.8130000   14.4630000   29.3700000  
H 15.5190000   15.2320000   30.5070000  
H 12.8900000   16.3450000   29.8740000  
H 11.5710000   17.5500000   29.3510000  
H 13.6660000   16.9270000   25.8170000  
C 15.8560000   16.2140000   25.2000000  
C 15.8010000   17.5590000   24.7780000  
C 15.8770000   17.8840000   23.4800000  
C 15.9310000   17.0280000   22.4200000  
C 15.8210000   15.6400000   22.8090000  
C 15.9010000   15.2310000   24.1850000  
C 15.7260000   18.7980000   25.5000000  
C 15.8530000   19.8210000   24.5320000  
N 15.9800000   19.2060000   23.2790000  
O 16.1090000   21.4580000   26.1380000  
C 15.9060000   21.2470000   24.8390000  
O 15.8270000   22.1030000   24.0290000  
O 15.6830000   14.6400000   21.8990000  
O 15.7920000   13.9160000   24.4970000  
H 15.7160000   18.9200000   26.5630000  
H 16.1880000   20.5610000   26.5850000  
H 16.1400000   19.6750000   22.4250000  
H 15.6560000   14.9890000   20.9800000  
H 15.9630000   13.4630000   23.6290000  
C 15.8530000   17.4200000   20.9960000  
C 16.8750000   18.1380000   20.4010000  
C 16.8570000   18.4730000   19.0880000  
C 15.7050000   18.3700000   18.2690000  
C 14.5870000   17.6110000   18.8700000  
C 14.7530000   17.0920000   20.1870000  
C 18.1570000   18.6830000   20.8000000  
C 18.7750000   19.3060000   19.7280000  
N 17.9510000   19.1660000   18.6200000  
O 20.7830000   19.7990000   20.9290000  
C 20.1690000   19.8620000   19.7280000  
O 20.7170000   20.3270000   18.7780000  
O 13.3330000   17.4340000   18.1900000  
O 13.6250000   16.5530000   20.7570000  
H 18.7050000   18.3660000   21.6210000  
H 20.1190000   19.4530000   21.5430000  
H 18.1390000   19.4590000   17.6730000  
H 13.5110000   17.8360000   17.3120000  
H 12.8820000   16.3050000   20.1870000  
C 15.6320000   18.8470000   16.8770000  
C 15.3940000   17.9110000   15.7600000  
C 15.1540000   18.3960000   14.5130000  
C 15.0980000   19.7890000   14.2390000  
C 15.4360000   20.6250000   15.3450000  
C 15.6660000   20.2480000   16.6410000  
C 15.1040000   16.4640000   15.7850000  
C 14.6650000   16.1560000   14.5250000  
N 14.6600000   17.3460000   13.7180000  
O 14.3310000   13.8150000   14.7580000  
C 14.2240000   14.8890000   13.8950000  
O 13.7550000   14.7960000   12.7750000  
O 15.3860000   21.9840000   15.0940000  
O 15.7570000   21.0960000   17.7090000  
H 15.3240000   15.8570000   16.6180000  
H 14.7330000   14.1640000   15.5420000  
H 14.2710000   17.4160000   12.7290000  
H 15.7640000   22.4840000   15.8490000  
H 15.3300000   20.5830000   18.4690000  
H 14.8140000   20.0860000   13.2090000  
