76
000 
C 19.5970000   17.7520000   15.4720000  
C 18.7250000   18.1560000   14.3570000  
C 17.3730000   18.3530000   14.5800000  
C 16.7700000   18.1830000   15.7920000  
C 17.4520000   17.9190000   16.9420000  
C 18.9220000   17.7490000   16.9150000  
C 16.2410000   18.6720000   13.7230000  
C 15.0720000   18.7110000   14.4500000  
N 15.4290000   18.5510000   15.7600000  
O 13.6860000   18.5080000   12.6600000  
C 13.7080000   18.8860000   13.9390000  
O 12.7030000   19.0590000   14.5740000  
O 19.6960000   17.5630000   17.8470000  
O 20.8110000   17.6160000   15.2360000  
H 19.2070000   18.3090000   13.3740000  
H 16.3340000   18.6730000   12.6440000  
H 14.5990000   18.2890000   12.4000000  
H 14.7270000   18.5480000   16.5100000  
C 16.7140000   17.9180000   18.1530000  
C 16.3860000   16.7520000   18.8290000  
C 15.9540000   16.7760000   20.1100000  
C 15.6950000   17.9510000   20.8280000  
C 15.9360000   19.1850000   20.0860000  
C 16.4510000   19.1820000   18.7510000  
C 16.7460000   15.3610000   18.5770000  
C 16.5720000   14.7250000   19.7990000  
N 15.9210000   15.5420000   20.6420000  
O 17.6450000   12.7150000   19.0080000  
C 16.9510000   13.3420000   20.0620000  
O 16.7160000   12.7700000   21.1020000  
O 15.7790000   20.4450000   20.6290000  
O 16.9060000   20.4100000   18.2420000  
H 17.0900000   14.9760000   17.6550000  
H 17.5840000   13.3750000   18.2850000  
H 15.5730000   15.3400000   21.5850000  
H 16.0100000   20.4570000   21.5590000  
H 16.7800000   21.0150000   18.9930000  
C 15.2980000   17.9380000   22.2620000  
C 16.0540000   17.2940000   23.1970000  
C 15.5580000   17.2280000   24.4420000  
C 14.2540000   17.6130000   24.8440000  
C 13.4660000   18.2640000   23.8830000  
C 14.0070000   18.4870000   22.6070000  
C 17.3380000   16.6300000   23.1380000  
C 17.5340000   16.2260000   24.4640000  
N 16.5130000   16.6530000   25.2790000  
O 19.7310000   15.2940000   24.1340000  
C 18.8110000   15.6150000   25.0290000  
O 19.0050000   15.3180000   26.2280000  
O 12.2220000   18.8010000   24.1760000  
O 13.2290000   19.1530000   21.6770000  
H 18.0620000   16.6860000   22.3320000  
H 19.2770000   15.5180000   23.3450000  
H 16.5560000   16.6630000   26.3190000  
H 12.0140000   18.5210000   25.0270000  
H 12.4600000   19.5260000   22.0770000  
C 13.7740000   17.4100000   26.2450000  
C 13.5090000   18.4810000   27.1750000  
C 13.0320000   18.2630000   28.4160000  
C 12.8140000   17.0090000   28.9260000  
C 13.2350000   15.8930000   28.1340000  
C 13.5910000   16.0920000   26.7480000  
C 13.5810000   19.9030000   26.9870000  
C 13.1020000   20.4640000   28.1640000  
N 12.7820000   19.4420000   29.0610000  
O 13.2860000   22.8250000   27.5500000  
C 13.0090000   21.9250000   28.5180000  
O 12.6450000   22.2880000   29.6030000  
O 13.0520000   14.5940000   28.5950000  
O 13.8390000   14.9310000   26.0310000  
H 13.9010000   20.5200000   26.2180000  
H 13.6190000   22.2140000   26.9440000  
H 12.5670000   19.5470000   30.0380000  
H 13.5990000   13.8910000   28.1290000  
H 13.2800000   14.1680000   26.3840000  
H 12.3830000   16.9240000   29.8400000  
