76
000 
C 19.5350000   22.3620000   16.8290000  
C 18.3760000   22.9610000   16.0920000  
C 17.1050000   22.5970000   16.4450000  
C 16.8380000   21.5880000   17.4230000  
C 17.7620000   21.0210000   18.2510000  
C 19.1970000   21.3290000   18.0170000  
C 15.8440000   23.1750000   16.0850000  
C 14.8000000   22.5360000   16.8410000  
N 15.4670000   21.6520000   17.6650000  
O 12.8640000   23.7490000   15.9480000  
C 13.3090000   22.8290000   16.8390000  
O 12.5540000   22.2440000   17.6090000  
O 20.0310000   20.9400000   18.8270000  
O 20.6980000   22.5790000   16.5260000  
H 18.6680000   23.6450000   15.3150000  
H 15.8380000   23.9630000   15.4070000  
H 13.6710000   24.0420000   15.4730000  
H 14.9940000   21.1140000   18.4430000  
C 17.1490000   20.0750000   19.1580000  
C 17.0330000   18.7320000   18.8380000  
C 16.3400000   17.9500000   19.6620000  
C 16.0300000   18.1990000   20.9920000  
C 16.2650000   19.4970000   21.3830000  
C 16.8020000   20.4690000   20.5020000  
C 17.3850000   17.9870000   17.6860000  
C 16.7550000   16.7480000   17.8410000  
N 16.1230000   16.7440000   19.1140000  
O 17.7200000   15.9060000   15.9080000  
C 16.8560000   15.6300000   16.9110000  
O 16.2660000   14.5550000   17.0350000  
O 15.7250000   19.8700000   22.6200000  
O 17.1420000   21.7030000   20.9850000  
H 18.0280000   18.3960000   16.9110000  
H 18.2460000   16.7110000   16.1170000  
H 15.5020000   15.9890000   19.4440000  
H 15.2670000   19.0930000   22.9500000  
H 16.5010000   21.9170000   21.7370000  
C 15.3880000   17.2230000   21.8980000  
C 15.9420000   16.9880000   23.1670000  
C 15.4630000   15.9750000   23.9650000  
C 14.2100000   15.2480000   23.7470000  
C 13.6120000   15.5350000   22.4410000  
C 14.2200000   16.4630000   21.5240000  
C 17.0840000   17.5650000   23.8770000  
C 17.2490000   16.7010000   24.9740000  
N 16.1920000   15.8490000   25.0470000  
O 19.1130000   17.7730000   25.9780000  
C 18.3200000   16.7000000   26.0330000  
O 18.4760000   15.8210000   26.8950000  
O 12.4060000   14.9870000   22.1100000  
O 13.5530000   16.6960000   20.3880000  
H 17.8650000   18.2290000   23.4630000  
H 18.7210000   18.3050000   25.2640000  
H 15.9490000   15.2180000   25.8190000  
H 12.2680000   14.2930000   22.8020000  
H 12.7250000   16.1910000   20.3600000  
C 13.7190000   14.1650000   24.6240000  
C 13.3440000   14.4690000   25.9740000  
C 12.7070000   13.4800000   26.7410000  
C 12.6160000   12.1210000   26.2810000  
C 12.9950000   11.8720000   24.9180000  
C 13.4680000   12.8560000   24.1230000  
C 13.6590000   15.5510000   26.9300000  
C 13.3380000   15.1080000   28.2060000  
N 12.6440000   13.8430000   28.0330000  
O 14.2390000   16.9550000   29.4620000  
C 13.5880000   15.7460000   29.5070000  
O 13.1600000   15.2080000   30.5490000  
O 12.7860000   10.6130000   24.4010000  
O 13.8160000   12.5330000   22.8400000  
H 14.2150000   16.4100000   26.6310000  
H 14.2140000   17.1620000   28.5010000  
H 12.0870000   13.3890000   28.7670000  
H 11.8530000   10.3440000   24.3470000  
H 13.4630000   11.6570000   22.7440000  
H 12.2940000   11.3100000   26.8460000  
