76
000 
C 16.7840000   11.3940000   25.2150000  
C 15.4980000   10.8660000   25.8180000  
C 14.2760000   11.4500000   25.5020000  
C 14.1590000   12.5220000   24.6450000  
C 15.2340000   13.1650000   24.0210000  
C 16.6420000   12.5950000   24.2370000  
C 12.9270000   11.0080000   25.8060000  
C 11.9890000   11.8530000   25.2180000  
N 12.8180000   12.7180000   24.4130000  
O  9.9950000   10.8720000   25.8800000  
C 10.5200000   11.8670000   25.1460000  
O  9.8660000   12.6260000   24.5030000  
O 17.5830000   13.1910000   23.7620000  
O 17.8590000   10.8950000   25.5770000  
H 15.5590000    9.8750000   26.2960000  
H 12.7990000   10.1480000   26.4570000  
H 10.6770000   10.2980000   26.2360000  
H 12.4920000   13.4070000   23.7200000  
C 14.9480000   14.3620000   23.1560000  
C 14.4710000   15.5840000   23.6960000  
C 14.6200000   16.7470000   23.0380000  
C 15.3920000   16.8660000   21.8530000  
C 15.6540000   15.5720000   21.2120000  
C 15.4840000   14.3730000   21.8760000  
C 14.1110000   15.9040000   25.0670000  
C 14.0500000   17.3390000   25.0710000  
N 14.4410000   17.8620000   23.8640000  
O 13.3540000   17.4660000   27.3620000  
C 13.7030000   18.1950000   26.2610000  
O 13.6400000   19.4550000   26.2290000  
O 16.1890000   15.5780000   19.9930000  
O 15.9850000   13.1850000   21.3330000  
H 14.0510000   15.2180000   25.8740000  
H 13.4920000   16.5370000   27.1490000  
H 14.7370000   18.8010000   23.6280000  
H 16.3570000   16.5400000   19.8260000  
H 16.7120000   13.3360000   20.7360000  
C 15.6460000   18.2070000   21.1720000  
C 16.9500000   18.6750000   20.9100000  
C 17.2160000   19.9080000   20.2830000  
C 16.2080000   20.7370000   19.8070000  
C 14.8650000   20.2110000   20.0340000  
C 14.5860000   19.0410000   20.7480000  
C 18.2070000   18.1100000   21.3220000  
C 19.1980000   19.1070000   20.9570000  
N 18.5700000   20.1800000   20.2110000  
O 21.0530000   18.3460000   22.3000000  
C 20.6410000   19.1780000   21.3130000  
O 21.4380000   19.9080000   20.7910000  
O 13.8190000   20.9800000   19.6350000  
O 13.2680000   18.6350000   20.9760000  
H 18.3910000   17.1990000   21.8840000  
H 20.2640000   17.9530000   22.7230000  
H 18.9340000   21.0640000   19.8850000  
H 14.2930000   21.6990000   19.1700000  
H 12.7360000   19.4920000   20.8420000  
C 16.5020000   22.0350000   19.2440000  
C 16.4050000   22.2860000   17.9130000  
C 16.5160000   23.5760000   17.3920000  
C 16.8130000   24.6700000   18.1800000  
C 17.0920000   24.3600000   19.5280000  
C 16.8940000   23.0750000   20.0450000  
C 16.0960000   21.4030000   16.7990000  
C 16.0390000   22.2350000   15.6730000  
N 16.3010000   23.5780000   16.0690000  
O 15.6330000   20.5350000   14.0090000  
C 15.7500000   21.8580000   14.2880000  
O 15.6200000   22.6980000   13.3760000  
O 17.6610000   25.3420000   20.2720000  
O 17.1610000   22.8830000   21.3560000  
H 15.9540000   20.3460000   16.7920000  
H 15.8620000   19.9970000   14.7780000  
H 16.3960000   24.4240000   15.4440000  
H 17.5830000   26.1150000   19.7220000  
H 17.4340000   23.7310000   21.6960000  
H 17.0540000   25.6000000   17.6990000  
