76
000 
C 18.0130000   10.8230000   19.7400000  
C 16.8240000    9.9020000   19.5940000  
C 15.6010000   10.5110000   19.7220000  
C 15.4800000   11.8370000   20.1030000  
C 16.4500000   12.7640000   20.2500000  
C 17.8060000   12.3830000   19.9260000  
C 14.3240000    9.9490000   19.7630000  
C 13.3980000   10.9370000   20.0380000  
N 14.1520000   12.0680000   20.3170000  
O 11.4890000    9.5010000   20.1820000  
C 11.9350000   10.7850000   20.3170000  
O 11.2190000   11.7540000   20.6630000  
O 18.7590000   13.1420000   19.9520000  
O 19.0910000   10.3170000   19.8840000  
H 17.0600000    8.7960000   19.5800000  
H 14.1920000    8.9350000   19.5850000  
H 12.2980000    8.9330000   20.1760000  
H 13.9140000   12.9300000   20.7290000  
C 16.0680000   14.1840000   20.4940000  
C 15.8260000   14.6190000   21.8020000  
C 15.4200000   15.8920000   22.0090000  
C 15.4180000   16.9290000   21.0660000  
C 15.8440000   16.5350000   19.7750000  
C 16.0860000   15.1920000   19.4500000  
C 15.8160000   13.9520000   23.0580000  
C 15.5090000   14.9570000   23.9940000  
N 15.0150000   16.0850000   23.3450000  
O 15.9330000   13.5570000   25.8850000  
C 15.4990000   14.7490000   25.4230000  
O 15.2020000   15.5540000   26.2830000  
O 15.9440000   17.4110000   18.6730000  
O 16.5390000   14.8540000   18.1870000  
H 16.1070000   12.9960000   23.3510000  
H 16.2490000   13.2050000   25.0460000  
H 14.6610000   16.9900000   23.8060000  
H 16.4280000   16.9900000   18.0150000  
H 16.4390000   15.6250000   17.6320000  
C 15.2330000   18.3530000   21.4750000  
C 16.1160000   18.8930000   22.4540000  
C 15.9370000   20.2220000   22.7380000  
C 15.0580000   21.0950000   22.1270000  
C 14.1750000   20.5200000   21.1890000  
C 14.2280000   19.1670000   20.8280000  
C 17.1640000   18.4360000   23.3230000  
C 17.6490000   19.5920000   23.9800000  
N 16.8920000   20.7250000   23.5530000  
O 19.2070000   18.4070000   25.4320000  
C 18.6760000   19.6530000   25.0600000  
O 18.9790000   20.7150000   25.5930000  
O 13.2680000   21.3410000   20.6160000  
O 13.5070000   18.6610000   19.7890000  
H 17.5510000   17.4720000   23.4260000  
H 18.8650000   17.7680000   24.7780000  
H 17.0350000   21.7500000   23.7220000  
H 13.2680000   22.1670000   21.1000000  
H 12.9400000   19.3360000   19.4160000  
C 14.8060000   22.5830000   22.5870000  
C 15.1080000   23.5860000   21.6520000  
C 14.8950000   24.9250000   22.0450000  
C 14.3540000   25.3200000   23.2500000  
C 14.1020000   24.3080000   24.1910000  
C 14.3340000   22.9670000   23.8890000  
C 15.9130000   23.5660000   20.5120000  
C 16.1030000   24.8890000   20.1210000  
N 15.3980000   25.6480000   21.0800000  
O 17.4340000   24.3770000   18.1740000  
C 16.8790000   25.3520000   18.9390000  
O 17.0470000   26.5180000   18.6350000  
O 13.5240000   24.5930000   25.4010000  
O 13.8810000   21.9630000   24.7110000  
H 16.2970000   22.6800000   19.9910000  
H 17.0210000   23.6680000   18.5660000  
H 15.3430000   26.6370000   21.0370000  
H 13.4770000   23.7970000   25.9880000  
H 14.0140000   21.0730000   24.2770000  
H 14.1710000   26.4140000   23.3860000  
