76
000 
C 19.9050000   19.4440000   15.4580000  
C 18.8480000   20.1910000   14.7260000  
C 17.6020000   20.3210000   15.2630000  
C 17.2190000   19.8040000   16.4430000  
C 17.9690000   19.0030000   17.2080000  
C 19.4450000   18.8230000   16.8210000  
C 16.5660000   21.2170000   14.8590000  
C 15.5550000   21.1930000   15.8500000  
N 16.0070000   20.3250000   16.7980000  
O 13.8850000   22.4360000   14.6930000  
C 14.1480000   21.7100000   15.8350000  
O 13.4000000   21.4980000   16.7410000  
O 20.2130000   18.1440000   17.5280000  
O 21.0610000   19.3550000   15.0060000  
H 19.2180000   20.7830000   13.9920000  
H 16.5080000   21.5370000   13.8420000  
H 14.7030000   22.3610000   14.2090000  
H 15.4840000   20.1140000   17.6430000  
C 17.3420000   18.6220000   18.5070000  
C 16.2660000   17.7440000   18.5100000  
C 15.7630000   17.2960000   19.7180000  
C 16.1500000   17.8250000   20.9750000  
C 17.2390000   18.7920000   20.9680000  
C 17.8960000   19.0560000   19.7230000  
C 15.4720000   17.1320000   17.4920000  
C 14.4450000   16.4440000   18.1300000  
N 14.6530000   16.5310000   19.5190000  
O 13.3710000   15.9420000   16.1380000  
C 13.3150000   15.7850000   17.4280000  
O 12.4550000   15.2090000   18.0730000  
O 17.7420000   19.2060000   22.1520000  
O 19.0180000   19.9330000   19.8570000  
H 15.7230000   17.1890000   16.4300000  
H 13.9920000   16.6070000   15.8840000  
H 13.9790000   16.2040000   20.1880000  
H 17.5330000   18.4500000   22.7870000  
H 18.9440000   20.3970000   20.7030000  
C 15.6170000   17.3230000   22.3090000  
C 16.2030000   16.2620000   22.9710000  
C 15.6760000   15.8710000   24.2000000  
C 14.5020000   16.3890000   24.8600000  
C 13.8750000   17.4180000   24.0570000  
C 14.4510000   17.9120000   22.8500000  
C 17.4580000   15.5530000   22.8270000  
C 17.6250000   14.7290000   23.9480000  
N 16.4410000   14.8550000   24.7060000  
O 19.7040000   13.6730000   23.3180000  
C 18.7500000   13.7580000   24.2230000  
O 18.7120000   13.0030000   25.2100000  
O 12.6360000   17.8650000   24.3880000  
O 13.7360000   18.8080000   22.1030000  
H 18.1550000   15.6820000   21.9240000  
H 19.3860000   14.1510000   22.5240000  
H 16.2510000   14.5600000   25.6630000  
H 12.4580000   17.6200000   25.3210000  
H 12.8220000   18.8920000   22.3330000  
C 13.8370000   15.9320000   26.1350000  
C 13.4960000   16.8810000   27.0900000  
C 13.0270000   16.5140000   28.3260000  
C 12.9020000   15.1860000   28.6520000  
C 13.2180000   14.1740000   27.7620000  
C 13.7230000   14.5780000   26.4700000  
C 13.6720000   18.3620000   27.1470000  
C 13.2760000   18.7710000   28.4500000  
N 12.8500000   17.6470000   29.1340000  
O 13.7440000   21.0940000   28.1970000  
C 13.4140000   20.1480000   29.0860000  
O 13.1120000   20.4460000   30.2070000  
O 12.8930000   12.8660000   28.1490000  
O 13.8910000   13.6510000   25.5220000  
H 14.1120000   18.9820000   26.3810000  
H 13.9100000   20.6480000   27.3220000  
H 12.7400000   17.5810000   30.0750000  
H 13.4210000   12.2230000   27.6360000  
H 13.9020000   14.1270000   24.6720000  
H 12.6070000   14.9850000   29.6570000  
