76
000 
C 17.9310000   10.8230000   19.0380000  
C 16.9170000   10.5170000   18.0670000  
C 15.9140000   11.4040000   17.7050000  
C 15.7880000   12.6380000   18.2940000  
C 16.6710000   13.1050000   19.2360000  
C 17.7410000   12.1800000   19.7570000  
C 14.7690000   11.3370000   16.7780000  
C 14.0860000   12.5540000   16.7950000  
N 14.8440000   13.3570000   17.7140000  
O 12.2620000   12.1120000   15.2550000  
C 12.9000000   12.9860000   15.9920000  
O 12.5320000   14.1460000   15.9780000  
O 18.4060000   12.5330000   20.7440000  
O 18.8870000   10.0680000   19.2310000  
H 17.0660000    9.5240000   17.5760000  
H 14.4670000   10.5040000   16.1300000  
H 12.7260000   11.3000000   15.1680000  
H 14.7440000   14.3290000   17.9090000  
C 16.3500000   14.3840000   19.8570000  
C 15.8780000   14.5090000   21.2580000  
C 15.7150000   15.7140000   21.8230000  
C 15.6700000   16.9240000   21.1180000  
C 16.0530000   16.8400000   19.7380000  
C 16.3720000   15.5940000   19.1290000  
C 15.9600000   13.4940000   22.2920000  
C 15.6930000   14.2160000   23.4900000  
N 15.6460000   15.5660000   23.1930000  
O 15.6080000   12.4670000   24.9400000  
C 15.5300000   13.7410000   24.8950000  
O 15.4090000   14.5330000   25.8040000  
O 16.1440000   17.9460000   18.9460000  
O 16.7240000   15.6030000   17.8080000  
H 16.1760000   12.4710000   22.1400000  
H 15.7820000   12.2360000   24.0260000  
H 15.5340000   16.2570000   23.9000000  
H 15.5810000   18.6070000   19.3920000  
H 16.9770000   16.5900000   17.6730000  
C 15.4190000   18.2420000   21.8500000  
C 16.2910000   18.6890000   22.8600000  
C 16.0250000   19.8620000   23.5100000  
C 14.8790000   20.6900000   23.3200000  
C 13.9780000   20.1730000   22.3770000  
C 14.2760000   18.9980000   21.6180000  
C 17.5530000   18.2070000   23.4200000  
C 17.9580000   19.1240000   24.4340000  
N 17.0340000   20.2040000   24.4470000  
O 19.9200000   18.0440000   25.0470000  
C 19.1150000   19.0400000   25.3400000  
O 19.2550000   19.8340000   26.3010000  
O 12.8180000   20.8610000   22.2110000  
O 13.3950000   18.6310000   20.6620000  
H 18.0360000   17.3590000   23.1300000  
H 19.5140000   17.5840000   24.3020000  
H 17.0550000   20.8450000   25.2260000  
H 12.7810000   21.5100000   22.9790000  
H 12.5360000   18.8380000   21.0130000  
C 14.6450000   21.9560000   24.0640000  
C 14.8060000   23.1730000   23.3980000  
C 14.5070000   24.3590000   24.1560000  
C 14.0300000   24.3680000   25.4740000  
C 13.8480000   23.1020000   26.0810000  
C 14.1170000   21.9230000   25.3530000  
C 15.2610000   23.6420000   22.1280000  
C 15.1240000   25.0650000   22.0860000  
N 14.7300000   25.4690000   23.3870000  
O 15.7230000   25.4390000   19.7720000  
C 15.3680000   26.0030000   20.9200000  
O 15.1270000   27.1980000   20.9830000  
O 13.4710000   22.9580000   27.3770000  
O 13.8830000   20.7310000   25.9860000  
H 15.5920000   22.9750000   21.3170000  
H 15.9060000   24.4640000   19.9760000  
H 14.5630000   26.4130000   23.6670000  
H 13.1560000   22.0410000   27.3680000  
H 14.3430000   20.0830000   25.5050000  
H 13.8710000   25.2250000   25.9860000  
