76
000 
C 18.6690000   24.6170000   20.3670000  
C 17.4400000   25.1410000   19.8530000  
C 16.3240000   24.3480000   19.8780000  
C 16.2170000   23.0650000   20.1950000  
C 17.3470000   22.3460000   20.3990000  
C 18.6670000   23.0390000   20.5700000  
C 14.9770000   24.8100000   19.6880000  
C 14.1340000   23.7090000   19.8260000  
N 14.9540000   22.6820000   20.1970000  
O 11.9990000   24.7340000   19.3610000  
C 12.6710000   23.6220000   19.7570000  
O 12.0160000   22.6400000   20.0170000  
O 19.6290000   22.4350000   20.9820000  
O 19.5990000   25.3190000   20.5990000  
H 17.3760000   26.2190000   19.7390000  
H 14.7190000   25.8310000   19.4190000  
H 12.5960000   25.4960000   19.3560000  
H 14.6440000   21.8150000   20.5190000  
C 17.1000000   20.9730000   20.8240000  
C 16.6720000   20.0590000   19.8020000  
C 16.2580000   18.8210000   20.1820000  
C 16.1420000   18.3420000   21.5400000  
C 16.5650000   19.2810000   22.5530000  
C 16.9820000   20.5670000   22.1680000  
C 16.3860000   20.2810000   18.4330000  
C 15.6310000   19.1290000   18.0640000  
N 15.7420000   18.1770000   19.1200000  
O 15.2180000   20.0010000   15.8560000  
C 14.9900000   18.9250000   16.7300000  
O 14.3010000   17.9900000   16.3310000  
O 16.5100000   19.0150000   23.9080000  
O 17.1990000   21.5730000   23.0500000  
H 16.5700000   21.2100000   17.8530000  
H 15.7140000   20.6760000   16.3630000  
H 15.3150000   17.2660000   19.1910000  
H 16.1230000   18.1270000   24.0280000  
H 16.9830000   21.3100000   23.9270000  
C 15.8110000   16.9420000   21.9510000  
C 16.7800000   16.1840000   22.6250000  
C 16.5770000   14.8510000   22.8530000  
C 15.3550000   14.2320000   22.6120000  
C 14.3480000   14.9660000   21.9310000  
C 14.5530000   16.3340000   21.5990000  
C 18.1070000   16.5050000   22.9540000  
C 18.6100000   15.4200000   23.6040000  
N 17.6650000   14.4150000   23.6540000  
O 20.7530000   16.4180000   23.8200000  
C 20.0440000   15.3210000   24.1070000  
O 20.4180000   14.4220000   24.8000000  
O 13.3470000   14.2990000   21.3050000  
O 13.5790000   17.0190000   20.9040000  
H 18.6520000   17.2710000   22.4840000  
H 20.3850000   16.8690000   23.0470000  
H 17.7720000   13.5070000   24.1700000  
H 13.2990000   13.3560000   21.6320000  
H 12.7690000   16.4300000   20.9740000  
C 15.0780000   12.8140000   23.0130000  
C 13.8240000   12.4940000   23.6120000  
C 13.5640000   11.2430000   23.9980000  
C 14.4180000   10.1560000   23.7810000  
C 15.6840000   10.5070000   23.2470000  
C 15.9650000   11.7680000   22.6980000  
C 12.7510000   13.2780000   24.0300000  
C 11.7870000   12.4840000   24.6470000  
N 12.3080000   11.2200000   24.5830000  
O 10.2140000   14.1630000   24.9430000  
C 10.4420000   12.8640000   25.1850000  
O  9.6640000   12.1640000   25.8020000  
O 16.5990000    9.5560000   23.0820000  
O 17.1370000   12.0400000   22.0850000  
H 12.6540000   14.3150000   23.8340000  
H 10.8060000   14.3490000   24.2730000  
H 11.9240000   10.3500000   24.9630000  
H 16.2440000    8.6530000   23.1830000  
H 17.4670000   11.1650000   21.8350000  
H 14.0080000    9.1720000   23.9360000  
