76
000 
C 19.2750000   16.0190000   15.0300000  
C 18.3680000   16.7270000   14.1620000  
C 17.2660000   17.3880000   14.6720000  
C 16.9440000   17.4320000   16.0450000  
C 17.6250000   16.6790000   16.9580000  
C 18.8720000   15.9060000   16.5520000  
C 16.2260000   18.1130000   14.0190000  
C 15.3270000   18.5880000   14.9530000  
N 15.8620000   18.3010000   16.1780000  
O 13.7700000   19.4140000   13.3940000  
C 14.0140000   19.2470000   14.6940000  
O 13.2540000   19.6720000   15.5180000  
O 19.5290000   15.2900000   17.3730000  
O 20.2170000   15.3490000   14.5740000  
H 18.6490000   16.6800000   13.0650000  
H 16.0950000   18.1620000   13.0000000  
H 14.4640000   18.9440000   12.8970000  
H 15.3710000   18.3870000   17.0440000  
C 17.1960000   16.8290000   18.3770000  
C 16.1570000   16.0480000   18.9040000  
C 15.7160000   16.3780000   20.1320000  
C 16.2740000   17.3310000   21.0070000  
C 17.3460000   18.0070000   20.5420000  
C 17.8250000   17.7660000   19.2110000  
C 15.4750000   14.9870000   18.2820000  
C 14.5400000   14.6410000   19.2720000  
N 14.7780000   15.4260000   20.4130000  
O 13.2000000   13.1970000   17.8460000  
C 13.4020000   13.6880000   19.1570000  
O 12.7140000   13.3390000   20.0860000  
O 17.9850000   18.9690000   21.3180000  
O 18.9060000   18.4500000   18.7760000  
H 15.4280000   14.7150000   17.2290000  
H 13.9850000   13.5130000   17.2960000  
H 14.2430000   15.4790000   21.3410000  
H 17.6300000   18.9740000   22.1830000  
H 19.1820000   18.9960000   19.5020000  
C 15.6180000   17.6030000   22.3340000  
C 16.3480000   17.1870000   23.4540000  
C 15.7910000   17.3630000   24.7120000  
C 14.4920000   17.8710000   24.9750000  
C 13.7880000   18.1920000   23.8080000  
C 14.3080000   18.0660000   22.5130000  
C 17.7620000   16.8860000   23.7420000  
C 17.9590000   17.0600000   25.1440000  
N 16.7120000   17.2270000   25.7280000  
O 20.3180000   16.9610000   24.9410000  
C 19.3050000   17.0080000   25.8130000  
O 19.5210000   16.9840000   26.9680000  
O 12.4600000   18.5830000   23.9610000  
O 13.5200000   18.2400000   21.4390000  
H 18.5110000   16.6560000   22.9970000  
H 19.8980000   16.7820000   24.0990000  
H 16.5270000   17.2420000   26.7380000  
H 12.1470000   18.3790000   24.9030000  
H 12.6900000   18.6820000   21.6990000  
C 13.8840000   17.9820000   26.3240000  
C 13.7160000   19.2530000   26.8980000  
C 13.2320000   19.4770000   28.2120000  
C 12.6400000   18.3640000   28.8850000  
C 12.8370000   17.0920000   28.3290000  
C 13.5090000   16.8980000   27.0360000  
C 14.1890000   20.5050000   26.5310000  
C 13.8210000   21.4600000   27.4860000  
N 13.2770000   20.7910000   28.5980000  
O 14.6040000   23.4070000   26.3520000  
C 13.9580000   22.9720000   27.4350000  
O 13.5190000   23.7650000   28.2540000  
O 12.3520000   16.0590000   29.0620000  
O 13.7120000   15.5860000   26.5020000  
H 14.5370000   20.6570000   25.5300000  
H 14.8060000   22.5960000   25.8830000  
H 12.9660000   21.1010000   29.4410000  
H 12.9500000   15.2770000   28.9290000  
H 14.3260000   15.6050000   25.7750000  
H 12.1500000   18.4200000   29.8690000  
