76
000 
C 18.9950000   24.1550000   22.0590000  
C 18.0110000   25.2480000   21.9220000  
C 16.7240000   25.0090000   21.7130000  
C 16.1980000   23.7460000   21.5700000  
C 16.9400000   22.6170000   21.8030000  
C 18.3990000   22.7280000   22.0310000  
C 15.6090000   25.8500000   21.7410000  
C 14.4290000   25.0840000   21.6720000  
N 14.7890000   23.7410000   21.5190000  
O 12.8970000   26.9340000   21.5820000  
C 13.1000000   25.6160000   21.4610000  
O 12.1630000   24.8480000   21.2070000  
O 19.1380000   21.7940000   22.2170000  
O 20.1880000   24.4180000   22.1430000  
H 18.3420000   26.2790000   22.0660000  
H 15.6290000   26.9800000   21.8910000  
H 13.7170000   27.3950000   21.9840000  
H 14.1440000   22.9630000   21.4170000  
C 16.2450000   21.3610000   21.7150000  
C 16.2770000   20.6260000   20.4700000  
C 15.8200000   19.3160000   20.3880000  
C 15.4230000   18.5080000   21.4820000  
C 15.3360000   19.2700000   22.7220000  
C 15.7670000   20.6490000   22.7960000  
C 16.8750000   20.9310000   19.1750000  
C 16.8080000   19.8000000   18.3850000  
N 16.0640000   18.8620000   19.0860000  
O 18.0580000   20.5360000   16.5800000  
C 17.2680000   19.5560000   17.0210000  
O 17.1180000   18.5400000   16.4500000  
O 14.9490000   18.5700000   23.8150000  
O 15.9110000   21.3060000   24.0140000  
H 17.3480000   21.9400000   18.9500000  
H 17.8440000   21.1900000   17.2620000  
H 15.7920000   17.9580000   18.6730000  
H 14.6610000   17.6160000   23.6140000  
H 16.1420000   20.6620000   24.6600000  
C 15.1430000   17.0040000   21.3810000  
C 15.6680000   16.0570000   22.2680000  
C 15.4850000   14.7210000   22.2340000  
C 14.6890000   14.1150000   21.2530000  
C 14.0080000   15.0260000   20.3600000  
C 14.2430000   16.4490000   20.3600000  
C 16.8140000   16.2480000   23.1820000  
C 17.2640000   15.0050000   23.5650000  
N 16.4320000   14.0620000   22.9060000  
O 19.0770000   15.7330000   24.8290000  
C 18.4030000   14.6590000   24.3400000  
O 18.7550000   13.4740000   24.5930000  
O 13.1100000   14.5390000   19.4570000  
O 13.7060000   17.2520000   19.3600000  
H 17.3450000   17.1880000   23.2990000  
H 18.4930000   16.4890000   24.7010000  
H 16.4420000   13.0860000   23.0250000  
H 13.6470000   13.9570000   18.8010000  
H 13.3590000   16.6670000   18.6210000  
C 14.5110000   12.6120000   21.2220000  
C 14.2580000   11.8170000   22.3780000  
C 14.1930000   10.4340000   22.3620000  
C 14.1990000    9.7020000   21.1470000  
C 14.5840000   10.4430000   19.9750000  
C 14.7610000   11.8610000   20.0180000  
C 13.9870000   12.2660000   23.7600000  
C 13.5790000   11.1400000   24.4210000  
N 13.7810000   10.0120000   23.5930000  
O 12.8560000   12.3480000   26.3950000  
C 13.0290000   11.1430000   25.8120000  
O 12.7400000   10.0950000   26.4180000  
O 14.7160000    9.7080000   18.8470000  
O 15.2450000   12.4410000   18.8810000  
H 13.8200000   13.2190000   24.1310000  
H 13.3150000   12.8390000   25.6800000  
H 13.4630000    9.0690000   23.9020000  
H 14.1640000    9.0090000   19.0670000  
H 15.5890000   11.7440000   18.3950000  
H 14.0160000    8.5810000   21.1230000  
