76
000 
C 17.6090000   10.1910000   20.7130000  
C 16.2850000    9.5830000   20.8250000  
C 15.1920000   10.3470000   21.0750000  
C 15.2400000   11.7080000   21.0900000  
C 16.4060000   12.4390000   21.0900000  
C 17.6470000   11.7160000   20.9610000  
C 13.8170000   10.0540000   21.2280000  
C 13.0630000   11.2510000   21.3720000  
N 14.0190000   12.2920000   21.2840000  
O 10.9150000   10.1760000   21.6560000  
C 11.6200000   11.3490000   21.4390000  
O 11.0450000   12.4130000   21.3470000  
O 18.6700000   12.3730000   21.2100000  
O 18.6320000    9.6680000   20.4320000  
H 16.1710000    8.4920000   20.7010000  
H 13.3800000    9.0840000   21.2960000  
H 11.6650000    9.5970000   21.7360000  
H 13.9530000   13.2970000   21.5690000  
C 16.1590000   13.9440000   21.1510000  
C 16.0410000   14.6060000   22.3960000  
C 15.7540000   15.9570000   22.5030000  
C 15.6600000   16.7160000   21.3150000  
C 16.0330000   16.1760000   20.0820000  
C 16.1990000   14.7460000   19.9660000  
C 15.9590000   14.0930000   23.7600000  
C 15.7360000   15.2260000   24.5810000  
N 15.6330000   16.3820000   23.8250000  
O 15.6680000   14.0200000   26.6420000  
C 15.5100000   15.1970000   26.0230000  
O 15.3380000   16.1970000   26.6810000  
O 16.1330000   16.9510000   18.9960000  
O 16.4570000   14.1810000   18.7600000  
H 15.9100000   13.0680000   24.0470000  
H 15.7080000   13.4170000   25.9130000  
H 15.4250000   17.3470000   24.0420000  
H 15.8520000   17.8420000   19.2100000  
H 16.6920000   14.9160000   18.2390000  
C 15.4000000   18.1690000   21.4260000  
C 16.3160000   19.0820000   21.9550000  
C 16.0430000   20.3910000   22.0470000  
C 14.8690000   20.9870000   21.4900000  
C 13.9100000   20.0430000   20.9580000  
C 14.1790000   18.6610000   21.0050000  
C 17.6890000   18.8870000   22.2690000  
C 18.1980000   20.1460000   22.5990000  
N 17.1720000   21.0560000   22.5150000  
O 20.5540000   19.6110000   23.0210000  
C 19.6280000   20.5820000   22.8820000  
O 19.8970000   21.7500000   23.1490000  
O 12.6750000   20.5140000   20.6410000  
O 13.1770000   17.8520000   20.6570000  
H 18.1580000   17.9160000   22.1450000  
H 20.1110000   18.7370000   22.8830000  
H 17.3460000   22.1030000   22.4880000  
H 12.7120000   21.4100000   20.4080000  
H 12.3740000   18.4610000   20.5780000  
C 14.5030000   22.4470000   21.7210000  
C 15.1020000   23.5230000   20.9890000  
C 14.7370000   24.8590000   21.0400000  
C 13.7280000   25.2560000   21.8620000  
C 13.0800000   24.2540000   22.6320000  
C 13.4930000   22.9130000   22.5680000  
C 16.2270000   23.4690000   20.0770000  
C 16.5340000   24.7630000   19.7410000  
N 15.6410000   25.6600000   20.3690000  
O 18.5480000   24.1300000   18.5690000  
C 17.7520000   25.1630000   19.0430000  
O 18.0530000   26.3570000   18.9060000  
O 12.1250000   24.6760000   23.4780000  
O 12.9540000   22.0190000   23.4480000  
H 16.8680000   22.5780000   19.8790000  
H 18.0890000   23.2910000   18.6210000  
H 15.6390000   26.6680000   20.3230000  
H 11.8690000   23.8820000   23.9460000  
H 13.5210000   21.1910000   23.4130000  
H 13.4730000   26.3590000   21.9920000  
