76
000 
C 18.9010000   15.0000000   15.7740000  
C 17.9280000   14.5200000   14.8180000  
C 16.6000000   14.6180000   15.0010000  
C 16.1390000   15.2800000   16.1400000  
C 16.9140000   15.8480000   17.1620000  
C 18.3610000   15.6210000   17.1380000  
C 15.4580000   14.4280000   14.0620000  
C 14.3650000   14.9620000   14.7280000  
N 14.8010000   15.4730000   15.9420000  
O 12.7560000   14.4920000   12.9600000  
C 12.9290000   14.9500000   14.2180000  
O 11.9640000   15.3210000   14.8630000  
O 19.1910000   15.9360000   17.9630000  
O 20.1250000   14.9140000   15.6190000  
H 18.3230000   13.9900000   13.9640000  
H 15.4040000   13.9840000   13.0280000  
H 13.6640000   14.3080000   12.5720000  
H 14.2200000   15.9360000   16.6030000  
C 16.1200000   16.4170000   18.2770000  
C 15.8900000   15.6130000   19.4450000  
C 15.4580000   16.0500000   20.6280000  
C 15.1750000   17.4170000   20.7990000  
C 15.3430000   18.2460000   19.6640000  
C 15.8940000   17.8020000   18.4390000  
C 16.1810000   14.2200000   19.6750000  
C 16.0860000   14.0130000   21.0540000  
N 15.5240000   15.1450000   21.6300000  
O 16.9970000   11.7410000   20.8840000  
C 16.4570000   12.7000000   21.7090000  
O 16.3440000   12.5450000   22.9230000  
O 14.8910000   19.5130000   19.8440000  
O 16.3020000   18.7740000   17.4730000  
H 16.6680000   13.5840000   18.9970000  
H 16.8030000   12.1280000   20.0040000  
H 15.5090000   15.2330000   22.5460000  
H 14.5640000   19.6480000   20.7560000  
H 15.9520000   19.6410000   17.7020000  
C 14.8260000   17.9860000   22.1160000  
C 15.7880000   18.7370000   22.8570000  
C 15.5730000   19.2200000   24.0870000  
C 14.3970000   18.9660000   24.8040000  
C 13.3820000   18.1510000   24.1310000  
C 13.5910000   17.6870000   22.7650000  
C 17.1340000   19.1100000   22.5300000  
C 17.7150000   19.4500000   23.7600000  
N 16.7440000   19.6320000   24.7140000  
O 19.9410000   19.6100000   22.8610000  
C 19.1220000   19.7470000   23.9340000  
O 19.6370000   20.1180000   24.9860000  
O 12.3060000   17.8440000   24.8700000  
O 12.6460000   16.8810000   22.1960000  
H 17.5840000   18.9010000   21.5420000  
H 19.2990000   19.2870000   22.1910000  
H 16.8510000   19.7440000   25.7330000  
H 12.4690000   17.6390000   25.7940000  
H 11.9660000   16.7810000   22.9120000  
C 14.4800000   19.2600000   26.2750000  
C 14.5120000   20.6100000   26.6780000  
C 14.4050000   20.9790000   28.0100000  
C 14.3140000   20.0250000   29.0210000  
C 14.4370000   18.6930000   28.6590000  
C 14.4290000   18.2920000   27.3040000  
C 14.5400000   21.8440000   25.9250000  
C 14.4590000   22.8620000   26.8630000  
N 14.3530000   22.3120000   28.2030000  
O 14.5430000   24.5830000   25.2880000  
C 14.5320000   24.3100000   26.6420000  
O 14.6050000   25.0890000   27.5730000  
O 14.4310000   17.7970000   29.6580000  
O 14.5950000   16.9920000   27.0170000  
H 14.6030000   21.8620000   24.8410000  
H 14.3790000   23.6860000   24.9860000  
H 14.4020000   22.7860000   29.1290000  
H 14.7860000   18.1850000   30.4260000  
H 14.9370000   16.5070000   27.8460000  
H 14.0550000   20.3770000   30.0560000  
