76
000 
C 18.2200000   24.8080000   23.3090000  
C 17.0120000   25.6140000   23.0480000  
C 15.8230000   24.9890000   22.6490000  
C 15.8050000   23.6310000   22.3830000  
C 16.8220000   22.7160000   22.6490000  
C 18.1890000   23.2510000   22.9880000  
C 14.5170000   25.5240000   22.4440000  
C 13.6700000   24.4740000   22.0990000  
N 14.4750000   23.3330000   22.1500000  
O 11.7710000   25.7850000   21.7770000  
C 12.2530000   24.5560000   21.7920000  
O 11.5400000   23.5830000   21.5640000  
O 19.2180000   22.5400000   23.0580000  
O 19.2210000   25.3110000   23.7040000  
H 17.1570000   26.6620000   23.2490000  
H 14.3010000   26.6380000   22.5930000  
H 12.5340000   26.3420000   22.1090000  
H 14.1330000   22.4250000   22.0320000  
C 16.4920000   21.2920000   22.3830000  
C 17.0120000   20.5930000   21.2870000  
C 16.7910000   19.3010000   21.0690000  
C 15.8840000   18.5090000   21.8760000  
C 15.3250000   19.1620000   22.9800000  
C 15.6710000   20.5520000   23.2370000  
C 17.9550000   21.0290000   20.3210000  
C 18.1900000   19.8990000   19.5090000  
N 17.4700000   18.7860000   19.9460000  
O 19.5750000   20.9920000   17.9920000  
C 18.9970000   19.8170000   18.2680000  
O 19.0660000   18.8170000   17.5520000  
O 14.3340000   18.5620000   23.7140000  
O 15.2420000   21.2510000   24.3340000  
H 18.4310000   22.0240000   20.1230000  
H 19.5280000   21.4450000   18.8260000  
H 17.7090000   17.8630000   19.7310000  
H 14.2120000   17.7000000   23.2570000  
H 14.6430000   20.6420000   24.7630000  
C 15.4080000   17.0580000   21.4950000  
C 16.2230000   15.9130000   21.7060000  
C 15.8070000   14.6380000   21.3670000  
C 14.5750000   14.3590000   20.8210000  
C 13.7380000   15.5270000   20.5500000  
C 14.1230000   16.8260000   20.8890000  
C 17.5120000   15.8100000   22.2450000  
C 17.9030000   14.4770000   22.1060000  
N 16.8630000   13.7050000   21.4930000  
O 20.0090000   14.8420000   23.0860000  
C 19.1820000   13.9110000   22.5700000  
O 19.4260000   12.6960000   22.5310000  
O 12.6890000   15.4500000   19.6780000  
O 13.2130000   17.8400000   20.7920000  
H 17.9810000   16.6560000   22.7800000  
H 19.5320000   15.6440000   22.8870000  
H 16.8940000   12.7140000   21.3250000  
H 12.4590000   14.4460000   19.5720000  
H 12.3740000   17.4400000   20.5030000  
C 14.1490000   12.9420000   20.5030000  
C 14.1280000   11.9940000   21.4920000  
C 13.7220000   10.7000000   21.3180000  
C 13.2770000   10.2670000   20.0920000  
C 13.3300000   11.1290000   19.0450000  
C 13.7010000   12.4770000   19.2370000  
C 14.2930000   12.1190000   22.9260000  
C 13.9470000   10.9070000   23.5110000  
N 13.5780000   10.0180000   22.5290000  
O 13.9840000   11.5780000   25.8620000  
C 13.7220000   10.5760000   24.9680000  
O 13.3940000    9.5540000   25.4300000  
O 13.0240000   10.7420000   17.7950000  
O 13.8120000   13.2730000   18.1020000  
H 14.5300000   12.9650000   23.5390000  
H 14.2400000   12.3990000   25.4060000  
H 13.1240000    9.2050000   22.7590000  
H 12.4520000   10.0230000   17.6950000  
H 13.4970000   12.7090000   17.3990000  
H 12.9120000    9.2900000   20.0110000  
