76
000 
C 14.9040000   17.7490000   29.2140000  
C 13.9420000   18.9270000   29.3210000  
C 13.4050000   19.5350000   28.2190000  
C 13.8230000   19.2080000   26.9550000  
C 14.7110000   18.2280000   26.6730000  
C 15.3990000   17.4350000   27.7590000  
C 12.4010000   20.5360000   27.9930000  
C 12.1770000   20.6890000   26.6440000  
N 13.1310000   19.8840000   26.0160000  
O 10.1510000   21.9680000   26.7680000  
C 11.0360000   21.2680000   25.9670000  
O 10.9690000   21.2950000   24.7670000  
O 16.2940000   16.6870000   27.4970000  
O 15.2950000   17.1080000   30.1920000  
H 13.6090000   19.1670000   30.3160000  
H 11.9000000   21.0820000   28.7790000  
H 10.4040000   21.8270000   27.6820000  
H 13.2370000   19.8410000   25.0110000  
C 15.1700000   18.0720000   25.2890000  
C 15.7030000   19.1010000   24.5380000  
C 15.9530000   19.0370000   23.2140000  
C 15.7010000   17.8680000   22.4560000  
C 15.3280000   16.7430000   23.1810000  
C 15.0170000   16.8410000   24.5740000  
C 16.0040000   20.4440000   25.0410000  
C 16.4140000   21.1350000   23.8820000  
N 16.3770000   20.2600000   22.7760000  
O 16.8820000   23.1740000   25.0450000  
C 16.7580000   22.5700000   23.8400000  
O 16.8780000   23.2410000   22.8170000  
O 15.1710000   15.5730000   22.5530000  
O 14.5440000   15.7330000   25.1570000  
H 15.7700000   20.8350000   26.0110000  
H 16.7540000   22.5570000   25.7880000  
H 16.6060000   20.4990000   21.8330000  
H 15.5680000   15.6630000   21.6540000  
H 14.7500000   15.0170000   24.5880000  
C 15.8100000   17.7440000   20.9680000  
C 16.9320000   17.1020000   20.3570000  
C 16.8810000   16.9940000   18.9940000  
C 15.8620000   17.4320000   18.1400000  
C 14.7500000   18.0000000   18.7620000  
C 14.6940000   18.0990000   20.1840000  
C 18.0840000   16.4480000   20.8500000  
C 18.8100000   15.9860000   19.7290000  
N 18.0180000   16.4250000   18.5550000  
O 20.9000000   15.3250000   20.6980000  
C 20.0960000   15.3030000   19.5930000  
O 20.3540000   14.7100000   18.5860000  
O 13.5680000   18.2710000   18.0740000  
O 13.5140000   18.4650000   20.8630000  
H 18.4800000   16.2540000   21.8620000  
H 20.5920000   16.0050000   21.2970000  
H 18.1210000   16.0540000   17.5630000  
H 13.7910000   18.1390000   17.1370000  
H 12.8940000   18.6290000   20.1690000  
C 15.8420000   16.9530000   16.6990000  
C 15.9230000   15.5300000   16.4910000  
C 15.9720000   15.0360000   15.2110000  
C 15.8270000   15.8620000   14.1220000  
C 15.6960000   17.2940000   14.3530000  
C 15.7220000   17.8340000   15.6660000  
C 16.0720000   14.3880000   17.3690000  
C 16.4300000   13.3440000   16.5820000  
N 16.1960000   13.7030000   15.2600000  
O 17.0760000   11.8400000   18.4320000  
C 16.9640000   11.9930000   17.0890000  
O 17.3770000   11.1420000   16.3430000  
O 15.7240000   18.0660000   13.3350000  
O 15.6780000   19.2500000   15.8540000  
H 15.9970000   14.3110000   18.4150000  
H 16.6880000   12.5950000   18.8860000  
H 16.2920000   13.0930000   14.4800000  
H 15.5650000   17.5020000   12.5550000  
H 15.2720000   19.6440000   15.0450000  
H 15.7480000   15.3430000   13.1190000  
