76
000 
C 18.9710000   16.3050000   15.1250000  
C 18.6220000   17.4490000   14.2630000  
C 17.7690000   18.4070000   14.6600000  
C 17.1950000   18.4380000   15.9390000  
C 17.4830000   17.4640000   16.8610000  
C 18.3980000   16.3440000   16.6080000  
C 17.2700000   19.5110000   13.9210000  
C 16.3940000   20.1290000   14.7630000  
N 16.4020000   19.5530000   16.0250000  
O 15.7500000   21.7060000   13.0650000  
C 15.4450000   21.1700000   14.3020000  
O 14.5340000   21.5400000   14.9960000  
O 18.8300000   15.5390000   17.4540000  
O 19.7750000   15.4460000   14.7810000  
H 18.9770000   17.4610000   13.1640000  
H 17.3960000   19.6720000   12.9070000  
H 16.5690000   21.2640000   12.7800000  
H 15.7760000   19.8290000   16.7480000  
C 16.7150000   17.6350000   18.1420000  
C 15.8190000   16.6800000   18.5740000  
C 15.2610000   16.6360000   19.8120000  
C 15.5110000   17.6360000   20.7710000  
C 16.3080000   18.6980000   20.3370000  
C 16.9180000   18.6770000   19.0640000  
C 15.5510000   15.3130000   18.1040000  
C 14.7750000   14.6160000   19.0310000  
N 14.4490000   15.5380000   20.0420000  
O 14.7650000   12.3930000   17.9860000  
C 14.2930000   13.1860000   19.0180000  
O 13.7080000   12.7260000   19.9200000  
O 16.3900000   19.8190000   21.0640000  
O 17.7010000   19.7160000   18.7780000  
H 16.0630000   14.7050000   17.3390000  
H 14.9870000   12.9930000   17.2520000  
H 13.8870000   15.4290000   20.9250000  
H 16.2400000   19.5810000   21.9730000  
H 17.6360000   20.2670000   19.5840000  
C 14.9710000   17.5700000   22.2310000  
C 15.8370000   17.3910000   23.2660000  
C 15.4160000   17.3810000   24.5620000  
C 14.0840000   17.2780000   25.0000000  
C 13.1850000   17.4980000   23.8770000  
C 13.5940000   17.6280000   22.5470000  
C 17.2250000   17.1920000   23.2790000  
C 17.5860000   17.1580000   24.6100000  
N 16.4210000   17.1760000   25.4140000  
O 20.0290000   17.1890000   24.3950000  
C 18.9670000   17.2630000   25.2240000  
O 19.1940000   17.2940000   26.4380000  
O 11.8980000   17.6110000   24.2250000  
O 12.6960000   17.7270000   21.5770000  
H 17.9300000   17.3070000   22.4620000  
H 19.5980000   17.2040000   23.5420000  
H 16.3770000   17.3330000   26.3830000  
H 11.8990000   17.1880000   25.1530000  
H 11.8190000   17.8720000   21.9150000  
C 13.7190000   17.1740000   26.4730000  
C 13.9890000   18.2060000   27.3600000  
C 13.5790000   18.0760000   28.6660000  
C 12.8330000   16.9830000   29.1620000  
C 12.5140000   15.9740000   28.2390000  
C 13.0860000   16.0100000   26.9220000  
C 14.5630000   19.5040000   27.1490000  
C 14.4580000   20.1510000   28.3690000  
N 13.9150000   19.2490000   29.2980000  
O 15.6400000   22.0630000   27.8170000  
C 14.9310000   21.4460000   28.7650000  
O 14.7710000   21.9590000   29.8400000  
O 11.7950000   14.8930000   28.6020000  
O 12.8340000   15.0050000   25.9970000  
H 15.0930000   19.9200000   26.3040000  
H 15.8830000   21.3840000   27.0930000  
H 13.8750000   19.4580000   30.2940000  
H 12.1010000   14.1730000   27.9900000  
H 13.6490000   15.0100000   25.4940000  
H 12.5910000   16.6620000   30.1730000  
