76
000 
C 19.5680000   19.7360000   15.3580000  
C 18.5500000   19.4480000   14.3230000  
C 17.3610000   18.9060000   14.6910000  
C 17.0290000   18.6330000   16.0380000  
C 17.7890000   19.0420000   17.0410000  
C 19.1570000   19.5730000   16.8270000  
C 16.2240000   18.4610000   13.9520000  
C 15.1960000   18.1200000   14.8690000  
N 15.7290000   18.2290000   16.1580000  
O 13.3910000   17.5530000   13.3670000  
C 13.7980000   17.6810000   14.6610000  
O 13.0240000   17.3080000   15.5480000  
O 19.8920000   19.9030000   17.7520000  
O 20.6830000   20.1080000   15.1360000  
H 18.7070000   19.6390000   13.2680000  
H 16.0970000   18.7280000   12.8670000  
H 14.1700000   17.8970000   12.8610000  
H 15.2650000   18.1310000   17.0320000  
C 17.2170000   18.7780000   18.3880000  
C 16.8590000   17.4840000   18.7500000  
C 16.3000000   17.2640000   19.9800000  
C 16.1310000   18.1980000   20.9880000  
C 16.5360000   19.5460000   20.6730000  
C 17.0010000   19.8810000   19.3400000  
C 16.9130000   16.2200000   18.1250000  
C 16.3340000   15.2870000   18.9230000  
N 15.9660000   15.9340000   20.1480000  
O 16.2820000   13.6990000   17.1330000  
C 15.9380000   13.9140000   18.4340000  
O 15.4230000   13.0410000   19.1650000  
O 16.3150000   20.6450000   21.5490000  
O 17.3590000   21.2460000   19.0730000  
H 17.4760000   15.8920000   17.2370000  
H 16.8190000   14.4550000   16.8320000  
H 15.5050000   15.4630000   20.9800000  
H 15.5560000   20.4940000   22.1370000  
H 17.1090000   21.6060000   19.9070000  
C 15.4330000   17.7980000   22.1670000  
C 16.0680000   17.5990000   23.3820000  
C 15.3690000   17.2080000   24.5050000  
C 13.9580000   17.0450000   24.5260000  
C 13.3020000   17.2230000   23.2890000  
C 14.0240000   17.5890000   22.1380000  
C 17.4480000   17.6120000   23.7780000  
C 17.4740000   17.3160000   25.1650000  
N 16.2080000   16.8830000   25.5590000  
O 19.7420000   17.5230000   25.5480000  
C 18.5570000   17.2370000   26.0940000  
O 18.4750000   16.8610000   27.2380000  
O 11.9510000   17.2840000   23.2470000  
O 13.3170000   17.9640000   20.9970000  
H 18.2140000   18.0640000   23.1760000  
H 19.5800000   17.7520000   24.6060000  
H 15.9520000   16.3490000   26.3750000  
H 11.6820000   17.1530000   24.1710000  
H 12.3890000   17.9510000   21.2690000  
C 13.2600000   16.6380000   25.8120000  
C 13.5650000   17.2990000   27.0070000  
C 12.9690000   16.9590000   28.2130000  
C 12.1990000   15.8470000   28.3910000  
C 11.9680000   15.1310000   27.2170000  
C 12.4470000   15.4780000   25.9380000  
C 14.3790000   18.5130000   27.3200000  
C 14.1190000   18.7810000   28.6540000  
N 13.1840000   17.9410000   29.1440000  
O 15.8870000   20.4370000   28.7910000  
C 14.7470000   19.9140000   29.4590000  
O 14.4460000   20.3200000   30.5460000  
O 11.0120000   14.1230000   27.2590000  
O 12.0600000   14.7430000   24.8840000  
H 15.0820000   19.1080000   26.7710000  
H 16.0570000   19.8140000   28.1290000  
H 12.8870000   17.9320000   30.0960000  
H 10.6740000   13.9030000   26.3300000  
H 12.2740000   13.8080000   25.0930000  
H 11.6350000   15.7380000   29.2810000  
