76
000 
C 15.6880000   22.1540000   27.9960000  
C 14.3690000   22.7820000   27.7710000  
C 13.5780000   22.3250000   26.7420000  
C 14.0040000   21.3490000   25.8280000  
C 15.2490000   20.7430000   25.8250000  
C 16.1630000   21.0390000   26.9320000  
C 12.2450000   22.6470000   26.3430000  
C 11.8610000   21.8540000   25.2220000  
N 13.0250000   21.1780000   24.8400000  
O  9.5730000   22.5770000   25.1060000  
C 10.5390000   21.8580000   24.5000000  
O 10.2770000   21.3970000   23.3750000  
O 17.2370000   20.4680000   27.0840000  
O 16.3290000   22.5290000   28.9360000  
H 13.9720000   23.4280000   28.5060000  
H 11.6310000   23.3330000   26.8440000  
H  9.9460000   22.7010000   26.0230000  
H 13.1500000   20.8040000   23.8950000  
C 15.5610000   19.7720000   24.6750000  
C 16.2380000   20.2600000   23.5150000  
C 16.5260000   19.3710000   22.5310000  
C 15.9920000   18.1210000   22.4620000  
C 15.4210000   17.5560000   23.6270000  
C 15.1710000   18.3790000   24.7000000  
C 16.5960000   21.5830000   23.0570000  
C 16.9740000   21.5020000   21.7180000  
N 16.8880000   20.0900000   21.3610000  
O 17.3390000   23.8950000   21.2060000  
C 17.2840000   22.6290000   20.7420000  
O 17.4480000   22.4720000   19.5710000  
O 15.0650000   16.2850000   23.6100000  
O 14.6320000   17.8200000   25.8360000  
H 16.6190000   22.4390000   23.6900000  
H 17.3780000   23.6660000   22.1530000  
H 17.0970000   19.6500000   20.4120000  
H 15.5590000   15.8210000   22.9080000  
H 14.6190000   16.8680000   25.7160000  
C 16.0120000   17.3340000   21.2330000  
C 17.1740000   16.7040000   20.8290000  
C 17.1400000   15.9400000   19.6980000  
C 16.0170000   15.6520000   18.9400000  
C 14.8550000   16.4470000   19.2570000  
C 14.9190000   17.2560000   20.3990000  
C 18.4850000   16.4550000   21.4290000  
C 19.0820000   15.5010000   20.6820000  
N 18.3030000   15.2060000   19.5830000  
O 21.1200000   15.5130000   21.8280000  
C 20.4440000   14.9790000   20.8340000  
O 20.9770000   14.1890000   20.0700000  
O 13.7740000   16.2300000   18.4600000  
O 13.7260000   17.8350000   20.7580000  
H 18.8500000   16.8060000   22.4280000  
H 20.4310000   15.9100000   22.3710000  
H 18.4440000   14.5240000   18.8880000  
H 13.9650000   15.4790000   17.8980000  
H 13.1710000   18.0350000   19.9540000  
C 16.1440000   14.7140000   17.8340000  
C 15.4210000   13.5090000   17.9300000  
C 15.5560000   12.4990000   17.0250000  
C 16.3230000   12.7330000   15.8770000  
C 16.8980000   14.0010000   15.6920000  
C 16.9210000   14.9220000   16.7290000  
C 14.5540000   12.9660000   19.0090000  
C 14.1790000   11.6490000   18.6450000  
N 14.6980000   11.4460000   17.3820000  
O 13.1430000   10.8740000   20.6840000  
C 13.3810000   10.6310000   19.3670000  
O 13.0160000    9.6330000   18.8450000  
O 17.5460000   14.3060000   14.5310000  
O 17.7290000   16.0110000   16.7090000  
H 14.3220000   13.5570000   19.8310000  
H 13.5630000   11.7100000   20.8930000  
H 14.6670000   10.4880000   16.9650000  
H 17.3810000   13.6930000   13.7840000  
H 18.1350000   16.0580000   15.8140000  
H 16.5030000   11.9550000   15.1890000  
