76
000 
C 15.4100000   10.2330000   24.2230000  
C 14.1290000   10.1370000   23.5150000  
C 13.5340000   11.2640000   23.0360000  
C 14.1470000   12.5010000   22.9890000  
C 15.4100000   12.7360000   23.4280000  
C 16.1590000   11.6580000   24.0980000  
C 12.2420000   11.5300000   22.4360000  
C 12.1610000   12.9370000   22.0870000  
N 13.3810000   13.4440000   22.5050000  
O  9.8870000   13.2490000   21.3400000  
C 11.0650000   13.8180000   21.6060000  
O 11.2580000   14.9970000   21.6070000  
O 17.2970000   11.7700000   24.4690000  
O 15.9420000    9.3090000   24.8640000  
H 13.5650000    9.2160000   23.6230000  
H 11.3960000   10.8550000   22.2680000  
H  9.9160000   12.3230000   21.5410000  
H 13.5810000   14.4430000   22.5070000  
C 15.8720000   14.0740000   23.0860000  
C 15.8970000   15.0910000   24.0310000  
C 16.1510000   16.3440000   23.5150000  
C 16.5500000   16.6990000   22.2620000  
C 16.6070000   15.6230000   21.3430000  
C 16.3710000   14.3080000   21.7520000  
C 15.5370000   15.2120000   25.4360000  
C 15.5620000   16.5350000   25.7440000  
N 16.1140000   17.2090000   24.6000000  
O 14.5090000   16.2770000   27.8020000  
C 14.9820000   17.1350000   26.9360000  
O 14.7760000   18.3020000   27.0550000  
O 16.9340000   15.7880000   20.0340000  
O 16.3200000   13.3470000   20.8190000  
H 15.2010000   14.4600000   26.1440000  
H 14.8890000   15.5030000   27.4510000  
H 16.3640000   18.1870000   24.5670000  
H 16.7330000   16.7560000   19.9350000  
H 16.5760000   13.8750000   20.0490000  
C 16.4390000   18.1270000   21.8250000  
C 17.4850000   18.9500000   21.5090000  
C 17.3080000   20.2230000   21.1580000  
C 16.0550000   20.8570000   20.8680000  
C 14.9390000   20.0560000   21.2170000  
C 15.1170000   18.7820000   21.7620000  
C 18.9240000   18.7770000   21.6070000  
C 19.4950000   19.9990000   21.3030000  
N 18.4960000   20.8940000   20.9890000  
O 21.5540000   19.3430000   22.0180000  
C 20.8640000   20.3610000   21.5740000  
O 21.2870000   21.4780000   21.3290000  
O 13.6510000   20.4510000   21.0890000  
O 14.1070000   17.9000000   21.9960000  
H 19.3900000   17.9530000   22.1320000  
H 20.8920000   18.6370000   21.9800000  
H 18.6710000   21.8010000   20.5510000  
H 13.5220000   21.3580000   20.8470000  
H 13.3290000   18.2130000   21.4630000  
C 15.8720000   22.1860000   20.1830000  
C 15.5560000   22.2570000   18.8420000  
C 15.2790000   23.4570000   18.2630000  
C 15.3800000   24.7040000   18.9140000  
C 15.7260000   24.6820000   20.2990000  
C 15.9640000   23.4270000   20.8980000  
C 15.3730000   21.2230000   17.8640000  
C 14.9540000   21.8540000   16.7320000  
N 14.9280000   23.2480000   17.0140000  
O 14.9790000   19.8740000   15.3870000  
C 14.5680000   21.1850000   15.4710000  
O 14.1330000   21.7580000   14.4680000  
O 15.9410000   25.8360000   21.0640000  
O 16.4140000   23.4190000   22.2160000  
H 15.4660000   20.1800000   18.0600000  
H 15.2260000   19.6540000   16.2960000  
H 14.8370000   24.0270000   16.3230000  
H 15.8520000   26.6210000   20.4870000  
H 16.5790000   24.3760000   22.5000000  
H 15.0310000   25.6160000   18.4810000  
