76
000 
C 19.0280000   13.2820000   16.5990000  
C 18.1270000   13.3580000   15.4300000  
C 16.9150000   13.9700000   15.4930000  
C 16.5450000   14.7420000   16.6070000  
C 17.2150000   14.7950000   17.7860000  
C 18.5170000   14.1140000   17.8270000  
C 15.9400000   14.2610000   14.4760000  
C 14.9830000   15.1500000   15.0120000  
N 15.4050000   15.4220000   16.3330000  
O 13.4940000   15.1730000   13.0990000  
C 13.7700000   15.7070000   14.3470000  
O 13.1180000   16.6010000   14.7670000  
O 19.2490000   14.1630000   18.8000000  
O 20.1380000   12.8060000   16.5140000  
H 18.3860000   12.8190000   14.5280000  
H 16.0230000   13.8440000   13.4900000  
H 14.3090000   14.7830000   12.8010000  
H 14.9830000   16.1950000   16.8540000  
C 16.7040000   15.6400000   18.8620000  
C 16.1380000   15.0510000   20.0060000  
C 15.6170000   15.7670000   21.0500000  
C 15.3970000   17.1760000   20.9850000  
C 16.0250000   17.8520000   19.8260000  
C 16.6180000   17.0160000   18.8160000  
C 15.9250000   13.6940000   20.3550000  
C 15.2680000   13.6270000   21.5910000  
N 15.2030000   14.9580000   22.1020000  
O 15.3090000   11.2090000   21.6200000  
C 15.0430000   12.3900000   22.3190000  
O 14.6800000   12.3310000   23.4840000  
O 16.0930000   19.2110000   19.7700000  
O 17.1820000   17.6790000   17.8150000  
H 16.1570000   12.8040000   19.8280000  
H 15.3050000   11.4910000   20.7100000  
H 14.8220000   15.2220000   22.9760000  
H 15.3470000   19.5190000   20.3170000  
H 16.6660000   18.4480000   17.7530000  
C 14.9260000   17.8410000   22.2200000  
C 15.8300000   18.0630000   23.2530000  
C 15.4940000   18.8550000   24.3430000  
C 14.2550000   19.4340000   24.5520000  
C 13.3170000   19.1560000   23.5190000  
C 13.6690000   18.4580000   22.4040000  
C 17.2100000   17.7140000   23.5380000  
C 17.6410000   18.3850000   24.7180000  
N 16.5890000   19.1030000   25.1800000  
O 19.9140000   17.4550000   24.8650000  
C 18.9380000   18.2070000   25.4460000  
O 19.0610000   18.7810000   26.4850000  
O 12.0180000   19.6330000   23.6230000  
O 12.7650000   18.2430000   21.4050000  
H 17.9230000   17.1210000   22.9670000  
H 19.6530000   17.1010000   24.0000000  
H 16.6410000   19.6730000   26.0210000  
H 11.9710000   20.1500000   24.3900000  
H 12.0350000   18.8580000   21.6600000  
C 13.9940000   20.2880000   25.7090000  
C 14.3320000   21.6370000   25.7100000  
C 13.9790000   22.5590000   26.6800000  
C 13.1390000   22.2230000   27.7530000  
C 12.7420000   20.8390000   27.8070000  
C 13.1250000   19.8580000   26.7760000  
C 15.1700000   22.3420000   24.7750000  
C 15.3240000   23.6450000   25.3440000  
N 14.5720000   23.7610000   26.5200000  
O 16.6320000   24.4770000   23.4900000  
C 16.0260000   24.7910000   24.6290000  
O 16.1900000   25.8630000   25.1590000  
O 11.8640000   20.4220000   28.7330000  
O 12.5930000   18.5580000   26.8960000  
H 15.4950000   21.9370000   23.7660000  
H 16.4570000   23.5330000   23.2870000  
H 14.5210000   24.5860000   27.1330000  
H 11.8340000   19.4870000   28.8400000  
H 13.2370000   17.8550000   26.4870000  
H 12.7610000   22.9150000   28.4580000  
