76
000 
C 16.8860000   24.7720000   23.7530000  
C 16.4140000   25.5180000   22.5990000  
C 15.6450000   24.9230000   21.6370000  
C 15.3610000   23.5890000   21.6160000  
C 15.8270000   22.6960000   22.5450000  
C 16.5930000   23.1890000   23.7350000  
C 15.3650000   25.3790000   20.3500000  
C 14.7140000   24.3920000   19.5730000  
N 14.8020000   23.3120000   20.4020000  
O 14.1470000   25.7210000   17.6820000  
C 14.1060000   24.5000000   18.2200000  
O 13.6520000   23.5470000   17.6090000  
O 16.9570000   22.4540000   24.6880000  
O 17.3470000   25.3300000   24.7340000  
H 16.7560000   26.5910000   22.6100000  
H 15.5480000   26.4190000   20.1280000  
H 14.7250000   26.2200000   18.2570000  
H 14.4030000   22.4220000   20.2160000  
C 15.4270000   21.2980000   22.3250000  
C 15.9580000   20.6490000   21.2200000  
C 15.7320000   19.3360000   21.0760000  
C 14.9070000   18.5420000   21.9170000  
C 14.3580000   19.1790000   23.0510000  
C 14.5540000   20.5820000   23.2360000  
C 16.8800000   21.0580000   20.2270000  
C 17.2470000   19.8720000   19.5750000  
N 16.4600000   18.8020000   20.0100000  
O 19.3450000   20.6840000   18.6930000  
C 18.4440000   19.6620000   18.7420000  
O 18.6770000   18.6320000   18.1480000  
O 13.7710000   18.5230000   24.1130000  
O 14.1570000   21.1840000   24.4080000  
H 17.3120000   22.0390000   20.0640000  
H 18.9510000   21.3450000   19.2680000  
H 16.5330000   17.8800000   19.5900000  
H 13.5820000   17.6430000   23.7000000  
H 13.9430000   20.5280000   25.1240000  
C 14.7480000   17.0390000   21.7690000  
C 15.9300000   16.2500000   21.8490000  
C 15.7940000   14.8880000   21.7240000  
C 14.5530000   14.2230000   21.4110000  
C 13.4010000   15.0560000   21.4790000  
C 13.5000000   16.4770000   21.6230000  
C 17.3050000   16.5040000   22.0300000  
C 18.0190000   15.3350000   21.8210000  
N 17.0270000   14.2770000   21.7150000  
O 20.0480000   16.4010000   22.0430000  
C 19.4800000   15.1830000   21.9000000  
O 20.0420000   14.1180000   21.8080000  
O 12.2440000   14.5820000   21.1220000  
O 12.3760000   17.1940000   21.5370000  
H 17.6950000   17.5180000   22.3400000  
H 19.2760000   16.9440000   22.2210000  
H 17.1790000   13.2460000   21.6320000  
H 12.3800000   13.6870000   20.6820000  
H 11.7130000   16.4560000   21.6910000  
C 14.4620000   12.7400000   21.2300000  
C 14.9940000   11.8420000   22.2660000  
C 14.8680000   10.4680000   22.1600000  
C 14.1260000    9.8930000   21.0970000  
C 13.6220000   10.7590000   20.0880000  
C 13.7480000   12.1960000   20.1330000  
C 15.3670000   12.0660000   23.6350000  
C 15.5430000   10.7960000   24.2080000  
N 15.1370000    9.8030000   23.3240000  
O 16.1950000   11.6130000   26.3550000  
C 15.9470000   10.5230000   25.6430000  
O 16.1160000    9.4220000   26.1860000  
O 12.8370000   10.2230000   19.1280000  
O 13.1760000   12.9310000   19.0900000  
H 15.5290000   13.0040000   24.0910000  
H 16.2870000   12.2290000   25.7040000  
H 15.2590000    8.8080000   23.4910000  
H 11.9520000    9.9670000   19.4550000  
H 12.7010000   12.2270000   18.5910000  
H 13.7640000    8.8560000   21.1390000  
