76
000 
C 16.3430000   20.3100000   28.9130000  
C 14.9380000   20.5970000   29.2490000  
C 13.9570000   20.4590000   28.3260000  
C 14.1920000   20.0240000   27.0270000  
C 15.4260000   19.6050000   26.5770000  
C 16.6720000   19.7990000   27.4240000  
C 12.5380000   20.6830000   28.3940000  
C 11.9660000   20.3870000   27.1760000  
N 13.0070000   19.9780000   26.3430000  
O  9.7150000   20.5980000   27.7680000  
C 10.5750000   20.3190000   26.7600000  
O 10.1950000   20.1410000   25.5860000  
O 17.8450000   19.6310000   27.1770000  
O 17.2020000   20.2720000   29.7760000  
H 14.6640000   20.9340000   30.2380000  
H 12.0410000   21.0950000   29.2670000  
H 10.2890000   20.9410000   28.4540000  
H 12.7990000   19.6220000   25.4100000  
C 15.3940000   19.0070000   25.2130000  
C 15.4970000   19.8230000   24.0680000  
C 15.5870000   19.2530000   22.8460000  
C 15.4250000   17.8920000   22.5430000  
C 15.3020000   17.1100000   23.6820000  
C 15.3160000   17.6020000   25.0190000  
C 15.6530000   21.2310000   23.9050000  
C 15.7790000   21.4740000   22.5160000  
N 15.7160000   20.2230000   21.8870000  
O 16.0220000   23.8160000   22.5760000  
C 15.9620000   22.7230000   21.7900000  
O 16.2980000   22.7540000   20.6230000  
O 15.1980000   15.7550000   23.5430000  
O 15.1570000   16.7860000   26.1020000  
H 15.7780000   21.9690000   24.6880000  
H 15.9680000   23.4380000   23.4380000  
H 15.7490000   20.0870000   20.8700000  
H 14.8900000   15.5900000   22.6360000  
H 15.0550000   15.9000000   25.7370000  
C 15.6480000   17.4190000   21.0950000  
C 16.8050000   16.7310000   20.7110000  
C 16.9850000   16.2430000   19.4740000  
C 16.0470000   16.4630000   18.4170000  
C 14.8630000   17.1670000   18.7230000  
C 14.6930000   17.6490000   20.1230000  
C 17.8650000   16.1860000   21.5240000  
C 18.7460000   15.5500000   20.6950000  
N 18.2250000   15.5830000   19.4110000  
O 20.2610000   14.9940000   22.4410000  
C 19.9930000   14.9020000   21.1450000  
O 20.6730000   14.2920000   20.3370000  
O 14.0620000   17.4030000   17.6630000  
O 13.5150000   18.2630000   20.4340000  
H 17.9810000   16.4530000   22.5980000  
H 19.5600000   15.4240000   22.9760000  
H 18.7920000   15.1950000   18.6440000  
H 14.4770000   17.1380000   16.8450000  
H 13.0320000   18.2670000   19.5700000  
C 16.4100000   16.0030000   17.0000000  
C 15.7760000   14.8730000   16.4540000  
C 16.0880000   14.4380000   15.1530000  
C 16.9700000   15.1360000   14.3240000  
C 17.6120000   16.2560000   14.8510000  
C 17.3510000   16.6520000   16.1710000  
C 15.0880000   13.7920000   16.9890000  
C 14.8110000   12.8910000   15.9320000  
N 15.4040000   13.3430000   14.7950000  
O 13.6040000   11.2570000   17.1930000  
C 14.0440000   11.6590000   15.9330000  
O 13.7590000   11.0100000   14.9670000  
O 18.4790000   17.0510000   14.1130000  
O 17.9310000   17.8680000   16.5930000  
H 14.8360000   13.6890000   18.0100000  
H 14.1470000   11.9470000   17.6500000  
H 15.3030000   12.9770000   13.9040000  
H 18.6650000   16.5960000   13.2600000  
H 18.2140000   18.3390000   15.7900000  
H 16.9990000   14.8360000   13.2950000  
