76
000 
C 18.1380000   24.8660000   21.0720000  
C 16.8840000   25.7240000   20.9590000  
C 15.6640000   25.1000000   20.9050000  
C 15.5020000   23.6820000   20.7840000  
C 16.5470000   22.7750000   20.8890000  
C 17.9540000   23.2690000   21.0340000  
C 14.3380000   25.6040000   20.8160000  
C 13.4140000   24.5570000   20.6040000  
N 14.1800000   23.3630000   20.5560000  
O 11.3840000   26.0230000   20.7230000  
C 11.9050000   24.7360000   20.6260000  
O 11.1580000   23.7710000   20.4620000  
O 18.9490000   22.5740000   21.2430000  
O 19.2380000   25.4470000   21.0680000  
H 16.9900000   26.8520000   20.9250000  
H 14.0580000   26.6670000   20.8610000  
H 12.0670000   26.6820000   20.6810000  
H 13.8410000   22.4100000   20.3560000  
C 16.2010000   21.3050000   21.0170000  
C 16.5920000   20.3000000   20.0500000  
C 16.5210000   18.9490000   20.2740000  
C 15.8420000   18.4230000   21.3980000  
C 15.2650000   19.3990000   22.3220000  
C 15.4830000   20.7990000   22.1310000  
C 17.4150000   20.4200000   18.8630000  
C 17.7800000   19.1870000   18.4170000  
N 17.1260000   18.2430000   19.2510000  
O 19.2280000   20.1020000   16.7770000  
C 18.8900000   18.9960000   17.4080000  
O 19.4160000   17.9470000   17.2060000  
O 14.4140000   18.9600000   23.2810000  
O 14.9430000   21.6530000   22.9870000  
H 17.8430000   21.3650000   18.5450000  
H 18.6420000   20.7380000   17.2210000  
H 17.1500000   17.2300000   19.2520000  
H 14.0580000   18.0630000   23.0980000  
H 14.3550000   21.1450000   23.5790000  
C 15.5220000   16.9560000   21.5900000  
C 16.3620000   16.0690000   22.2690000  
C 16.0040000   14.8050000   22.2460000  
C 14.7920000   14.2190000   21.7390000  
C 13.8300000   15.1520000   21.2580000  
C 14.2130000   16.5260000   21.1480000  
C 17.6490000   16.1570000   22.8940000  
C 17.8680000   14.8580000   23.4570000  
N 16.9010000   14.0370000   22.9880000  
O 19.9910000   15.2120000   24.5670000  
C 19.0260000   14.2930000   24.1860000  
O 19.2480000   13.1160000   24.2940000  
O 12.6710000   14.6130000   20.7250000  
O 13.4050000   17.4660000   20.5290000  
H 18.3490000   16.9940000   22.9680000  
H 19.6680000   16.0610000   24.2130000  
H 16.9760000   12.9860000   22.9860000  
H 12.7660000   13.6160000   20.6830000  
H 12.6470000   16.9060000   20.1990000  
C 14.5140000   12.7620000   21.8440000  
C 14.2330000   12.1600000   23.0720000  
C 13.9750000   10.8490000   23.1860000  
C 14.2100000    9.9430000   22.1100000  
C 14.4680000   10.5190000   20.8510000  
C 14.5680000   11.9040000   20.6880000  
C 14.1290000   12.6770000   24.3780000  
C 13.6970000   11.6370000   25.2020000  
N 13.7000000   10.4610000   24.4800000  
O 13.6180000   12.9040000   27.2020000  
C 13.2920000   11.6410000   26.6940000  
O 12.9580000   10.7320000   27.4890000  
O 14.8680000    9.7570000   19.8490000  
O 14.8370000   12.4900000   19.4810000  
H 14.3480000   13.6690000   24.6280000  
H 13.8270000   13.3360000   26.4400000  
H 13.3360000    9.6160000   24.8400000  
H 14.8290000    8.8380000   20.1750000  
H 14.8020000   11.8040000   18.8230000  
H 13.9870000    8.8720000   22.2730000  
