76
000 
C 19.1090000   17.8290000   14.7380000  
C 18.2510000   18.8060000   14.0640000  
C 17.2840000   19.4300000   14.7920000  
C 17.0110000   19.2110000   16.1630000  
C 17.7610000   18.2540000   16.8840000  
C 18.8310000   17.4560000   16.2790000  
C 16.3350000   20.4010000   14.3600000  
C 15.5910000   20.8420000   15.4660000  
N 16.0330000   20.0860000   16.5390000  
O 14.1510000   22.4500000   14.4360000  
C 14.4330000   21.7660000   15.5600000  
O 13.8270000   21.9660000   16.5980000  
O 19.4620000   16.5900000   16.7720000  
O 20.0400000   17.3600000   14.1280000  
H 18.4910000   19.1430000   13.0350000  
H 16.1160000   20.7680000   13.3840000  
H 14.8540000   22.1750000   13.8660000  
H 15.7360000   20.0820000   17.4680000  
C 17.2730000   18.0860000   18.2930000  
C 16.3990000   17.0600000   18.5550000  
C 15.8750000   16.8630000   19.8210000  
C 16.1500000   17.6850000   20.9170000  
C 17.1110000   18.6490000   20.7000000  
C 17.6890000   18.8470000   19.3930000  
C 15.9910000   15.9290000   17.7850000  
C 15.1200000   15.1750000   18.5970000  
N 15.1940000   15.7020000   19.9250000  
O 14.4580000   13.6490000   16.9060000  
C 14.3850000   13.9120000   18.2040000  
O 13.6710000   13.2870000   18.9470000  
O 17.4980000   19.3770000   21.7640000  
O 18.5230000   19.8990000   19.2410000  
H 16.3090000   15.8700000   16.6790000  
H 15.1270000   14.1910000   16.4830000  
H 14.6260000   15.3570000   20.7090000  
H 17.1850000   18.8220000   22.5090000  
H 18.8230000   20.3520000   20.0960000  
C 15.4590000   17.4840000   22.2270000  
C 16.0490000   16.8640000   23.2920000  
C 15.4140000   16.6620000   24.4890000  
C 14.0910000   16.9670000   24.7870000  
C 13.4150000   17.5850000   23.6910000  
C 14.0690000   17.8190000   22.4530000  
C 17.4190000   16.4950000   23.4670000  
C 17.5570000   16.0080000   24.7610000  
N 16.3070000   16.1360000   25.3850000  
O 20.0310000   15.6700000   24.6960000  
C 18.8120000   15.6350000   25.4330000  
O 18.9600000   15.3220000   26.5880000  
O 12.0650000   17.9340000   23.8580000  
O 13.4080000   18.2980000   21.4140000  
H 18.2030000   16.7950000   22.8080000  
H 19.6920000   15.8160000   23.7900000  
H 16.2010000   16.2440000   26.4130000  
H 11.7680000   17.7720000   24.8070000  
H 12.5000000   18.0490000   21.4580000  
C 13.4120000   16.7050000   26.1300000  
C 13.5110000   17.6190000   27.1670000  
C 13.1110000   17.3960000   28.4620000  
C 12.5070000   16.1990000   28.8370000  
C 12.3310000   15.2480000   27.7710000  
C 12.8110000   15.5000000   26.4440000  
C 14.2390000   18.8820000   27.1980000  
C 14.0830000   19.4050000   28.4780000  
N 13.3650000   18.4930000   29.2820000  
O 15.4310000   21.2280000   28.0500000  
C 14.6900000   20.6210000   28.9650000  
O 14.4780000   21.1560000   30.0410000  
O 11.6250000   14.1120000   27.9380000  
O 12.7580000   14.4880000   25.5200000  
H 14.8860000   19.2640000   26.4790000  
H 15.6970000   20.4030000   27.5390000  
H 13.3180000   18.5630000   30.3050000  
H 12.0790000   13.6240000   27.2160000  
H 13.1210000   14.8650000   24.7080000  
H 12.2760000   15.9600000   29.8530000  
