76
000 
C 16.2500000   11.9840000   27.0340000  
C 14.8520000   11.5380000   27.0120000  
C 13.9090000   12.2020000   26.3150000  
C 14.1880000   13.2250000   25.4160000  
C 15.4510000   13.7330000   25.2600000  
C 16.6060000   13.1920000   25.9850000  
C 12.5400000   11.8740000   26.0750000  
C 12.0860000   12.5730000   24.9580000  
N 13.0580000   13.5330000   24.6890000  
O  9.9990000   11.5070000   24.7260000  
C 10.7720000   12.4900000   24.2500000  
O 10.3250000   13.1970000   23.3510000  
O 17.7140000   13.6340000   25.8320000  
O 17.0930000   11.3280000   27.6250000  
H 14.5970000   10.7380000   27.7340000  
H 11.9600000   11.0760000   26.6170000  
H 10.6070000   10.9950000   25.2740000  
H 12.9840000   14.2130000   23.9650000  
C 15.5360000   14.8110000   24.2190000  
C 15.4550000   16.1700000   24.4670000  
C 15.3750000   17.1460000   23.5450000  
C 15.3200000   16.9520000   22.1570000  
C 15.3490000   15.5930000   21.8190000  
C 15.4630000   14.5480000   22.8100000  
C 15.4100000   16.8130000   25.7380000  
C 15.2550000   18.2030000   25.5780000  
N 15.2990000   18.3730000   24.1580000  
O 14.8530000   18.6830000   27.8550000  
C 14.9190000   19.1860000   26.6070000  
O 14.8500000   20.3890000   26.3650000  
O 15.3810000   15.2350000   20.4950000  
O 15.5610000   13.2580000   22.4510000  
H 15.3000000   16.3130000   26.6620000  
H 15.3000000   17.8350000   27.6570000  
H 14.9200000   19.2010000   23.7360000  
H 15.1080000   16.0610000   20.0690000  
H 15.3900000   13.3280000   21.5220000  
C 15.2610000   18.0600000   21.1680000  
C 16.4700000   18.3480000   20.4670000  
C 16.6000000   19.5370000   19.8700000  
C 15.5740000   20.4710000   19.6030000  
C 14.2880000   20.1700000   20.2330000  
C 14.2180000   19.0110000   21.0350000  
C 17.7480000   17.6760000   20.3760000  
C 18.5480000   18.4300000   19.5680000  
N 17.8720000   19.6030000   19.2840000  
O 20.2490000   16.8780000   19.6480000  
C 19.9350000   18.0780000   19.2400000  
O 20.7290000   18.8040000   18.7020000  
O 13.2150000   21.0070000   20.0260000  
O 13.0210000   18.8230000   21.7400000  
H 18.1080000   16.9380000   21.0700000  
H 19.5030000   16.5410000   20.1730000  
H 18.2760000   20.3320000   18.7060000  
H 13.5080000   21.6640000   19.3740000  
H 12.7550000   19.7960000   21.8970000  
C 15.8160000   21.8290000   18.7850000  
C 16.1760000   21.7430000   17.4540000  
C 16.6040000   22.8510000   16.7570000  
C 16.6310000   24.1320000   17.3230000  
C 16.1430000   24.3060000   18.6060000  
C 15.7950000   23.1930000   19.3600000  
C 16.4230000   20.5740000   16.6160000  
C 16.9660000   21.0570000   15.4260000  
N 16.9400000   22.4710000   15.5020000  
O 17.5070000   18.9900000   14.3080000  
C 17.5390000   20.3250000   14.2480000  
O 17.9020000   20.9090000   13.2450000  
O 16.0440000   25.6050000   19.0940000  
O 15.4090000   23.4230000   20.6610000  
H 16.3830000   19.5340000   16.9420000  
H 17.2320000   18.7880000   15.2040000  
H 17.2840000   23.1320000   14.7870000  
H 16.5560000   26.1800000   18.5130000  
H 16.1700000   23.6410000   21.2210000  
H 17.0750000   25.0050000   16.8530000  
