76
000 
C 18.1000000   23.8280000   25.5990000  
C 16.9020000   24.5250000   26.0120000  
C 15.6980000   24.0640000   25.6030000  
C 15.4670000   22.8130000   24.9540000  
C 16.5020000   21.9320000   24.6080000  
C 17.9230000   22.3980000   24.9540000  
C 14.4640000   24.5650000   25.9020000  
C 13.4660000   23.6670000   25.4680000  
N 14.1560000   22.6130000   24.8390000  
O 11.5450000   24.8490000   26.3520000  
C 11.9690000   23.7390000   25.6810000  
O 11.2290000   22.9470000   25.2000000  
O 18.8150000   21.6430000   24.7310000  
O 19.1740000   24.3610000   25.6520000  
H 17.0410000   25.4880000   26.5150000  
H 14.3140000   25.4600000   26.4380000  
H 12.3920000   25.3760000   26.5020000  
H 13.7620000   21.8460000   24.3830000  
C 16.1630000   20.7250000   23.8300000  
C 16.5790000   20.5690000   22.4790000  
C 16.1530000   19.4470000   21.7880000  
C 15.4390000   18.2920000   22.3010000  
C 14.9870000   18.4940000   23.6360000  
C 15.4450000   19.6220000   24.3480000  
C 17.5510000   21.2110000   21.6270000  
C 17.5780000   20.4160000   20.4240000  
N 16.7300000   19.3090000   20.5570000  
O 19.2580000   21.8390000   19.4620000  
C 18.4740000   20.7500000   19.3180000  
O 18.5280000   20.0590000   18.3680000  
O 14.1250000   17.5940000   24.1510000  
O 15.0680000   19.5820000   25.6950000  
H 18.0700000   22.1690000   21.7620000  
H 19.0220000   22.2240000   20.3110000  
H 16.6260000   18.4970000   19.9650000  
H 13.8590000   17.0170000   23.3550000  
H 14.2840000   18.9770000   25.8120000  
C 15.1150000   17.1400000   21.4000000  
C 16.1750000   16.2730000   20.9830000  
C 15.9850000   15.2960000   20.0060000  
C 14.7440000   15.0550000   19.4350000  
C 13.6640000   15.9360000   19.8060000  
C 13.8240000   16.9750000   20.7480000  
C 17.4920000   16.0590000   21.4790000  
C 18.0740000   14.9780000   20.8230000  
N 17.1180000   14.4670000   19.8850000  
O 20.1830000   14.8450000   22.1280000  
C 19.4530000   14.4270000   21.0790000  
O 19.7930000   13.4940000   20.3880000  
O 12.3510000   15.7550000   19.3070000  
O 12.8170000   17.8190000   20.9990000  
H 17.9340000   16.6220000   22.3310000  
H 19.6780000   15.5340000   22.5790000  
H 17.2850000   13.7470000   19.2040000  
H 12.3040000   14.8320000   18.8130000  
H 12.1820000   17.5360000   20.3980000  
C 14.5180000   13.8130000   18.5090000  
C 14.2660000   12.5450000   19.0830000  
C 14.0670000   11.4480000   18.2550000  
C 13.9300000   11.5650000   16.8640000  
C 14.1860000   12.8870000   16.3760000  
C 14.4100000   14.0320000   17.1470000  
C 14.2880000   12.0500000   20.4270000  
C 14.2210000   10.6820000   20.3190000  
N 14.0050000   10.2960000   18.9830000  
O 14.7820000   10.1900000   22.5770000  
C 14.4690000    9.6620000   21.3440000  
O 14.3210000    8.4800000   21.1360000  
O 14.3140000   12.9400000   15.0200000  
O 14.6920000   15.2000000   16.5360000  
H 14.2970000   12.5940000   21.3670000  
H 14.6130000   11.1460000   22.4140000  
H 13.9090000    9.3370000   18.5880000  
H 13.9210000   12.2260000   14.5450000  
H 14.6160000   15.0840000   15.5940000  
H 13.6680000   10.7130000   16.2080000  
