76
000 
C 17.3340000   17.7620000   29.0130000  
C 16.1570000   18.2760000   29.6740000  
C 15.0010000   18.4510000   28.9340000  
C 14.9370000   18.0100000   27.6250000  
C 15.9810000   17.6270000   26.8410000  
C 17.2800000   17.5320000   27.4170000  
C 13.6750000   18.8310000   29.3040000  
C 12.8450000   18.6460000   28.1970000  
N 13.6830000   18.1970000   27.2460000  
O 10.9220000   19.6260000   29.0000000  
C 11.4470000   19.0160000   27.9420000  
O 10.8140000   18.7680000   26.9490000  
O 18.2620000   17.1310000   26.8080000  
O 18.2700000   17.4440000   29.7100000  
H 16.2330000   18.5540000   30.7480000  
H 13.3900000   19.2580000   30.2480000  
H 11.6930000   19.9650000   29.5010000  
H 13.3290000   17.9940000   26.2960000  
C 15.7290000   17.4590000   25.4330000  
C 16.2530000   18.4140000   24.5760000  
C 15.8980000   18.3600000   23.2790000  
C 15.2160000   17.3940000   22.6250000  
C 14.7040000   16.3870000   23.4410000  
C 14.9040000   16.4240000   24.8480000  
C 17.0360000   19.6190000   24.8080000  
C 17.1980000   20.1670000   23.5640000  
N 16.3890000   19.4680000   22.6100000  
O 18.8660000   21.7360000   24.1740000  
C 17.9810000   21.3880000   23.2470000  
O 17.8980000   22.0310000   22.2150000  
O 13.9820000   15.3240000   22.9190000  
O 14.2980000   15.4510000   25.6090000  
H 17.3810000   19.9830000   25.7600000  
H 18.8540000   20.9640000   24.7050000  
H 16.1710000   19.6690000   21.6610000  
H 13.6260000   15.6050000   22.0630000  
H 13.6930000   14.9540000   25.0440000  
C 15.0640000   17.3460000   21.1110000  
C 16.2000000   17.3520000   20.2870000  
C 16.0880000   17.5690000   18.9470000  
C 14.8780000   17.5350000   18.2430000  
C 13.7310000   17.6010000   19.0390000  
C 13.7680000   17.5190000   20.4530000  
C 17.6220000   17.3250000   20.5950000  
C 18.2970000   17.5330000   19.3580000  
N 17.3140000   17.5810000   18.3340000  
O 20.5120000   17.6600000   20.3220000  
C 19.7870000   17.6550000   19.1680000  
O 20.3120000   17.8370000   18.0680000  
O 12.5320000   17.8020000   18.3900000  
O 12.6060000   17.5570000   21.1950000  
H 18.0850000   16.9360000   21.4490000  
H 19.9360000   17.5180000   21.1170000  
H 17.4640000   17.7240000   17.3530000  
H 12.6560000   18.1800000   17.4810000  
H 11.9100000   17.8260000   20.5560000  
C 14.7830000   17.5960000   16.7340000  
C 15.0610000   16.3830000   15.9310000  
C 15.0510000   16.3950000   14.5970000  
C 14.8030000   17.5360000   13.8360000  
C 14.4350000   18.6720000   14.6170000  
C 14.4300000   18.7070000   16.0090000  
C 15.4870000   15.0690000   16.4130000  
C 15.8160000   14.4420000   15.2680000  
N 15.4080000   15.1890000   14.1510000  
O 16.4890000   12.3520000   16.4440000  
C 16.2740000   12.9890000   15.2360000  
O 16.4060000   12.4350000   14.1970000  
O 14.2830000   19.8050000   13.9220000  
O 14.1610000   19.9180000   16.6280000  
H 15.7590000   14.7230000   17.4450000  
H 16.1830000   12.9590000   17.1710000  
H 15.6760000   14.9230000   13.2140000  
H 15.1200000   20.2490000   13.9860000  
H 13.8970000   20.5830000   15.9110000  
H 14.9450000   17.5790000   12.7750000  
