76
000 
C 18.9200000   17.1030000   14.9610000  
C 17.8900000   16.9890000   13.8990000  
C 16.5750000   17.0340000   14.3230000  
C 16.1860000   17.3050000   15.6360000  
C 17.0630000   17.4820000   16.6670000  
C 18.4970000   17.4420000   16.3860000  
C 15.3840000   16.8320000   13.5650000  
C 14.2680000   17.0040000   14.3970000  
N 14.8020000   17.2370000   15.6740000  
O 12.7620000   16.2140000   12.8360000  
C 12.8810000   16.5140000   14.1160000  
O 11.9420000   16.3920000   14.8800000  
O 19.2980000   17.6080000   17.3150000  
O 20.0500000   16.9160000   14.7090000  
H 18.2760000   16.6670000   12.9280000  
H 15.3540000   16.6230000   12.4830000  
H 13.6250000   16.6170000   12.4240000  
H 14.2240000   17.4260000   16.5030000  
C 16.5230000   17.6640000   18.0400000  
C 16.7210000   16.6460000   18.9690000  
C 16.3280000   16.7720000   20.2940000  
C 15.6260000   17.9110000   20.8020000  
C 15.4930000   18.9780000   19.8670000  
C 15.8410000   18.8870000   18.4950000  
C 17.2750000   15.3170000   18.7910000  
C 17.1530000   14.6410000   20.0080000  
N 16.5790000   15.5310000   20.9880000  
O 18.2070000   12.5450000   19.4500000  
C 17.4760000   13.2400000   20.3740000  
O 17.1630000   12.7600000   21.4700000  
O 14.7390000   20.1390000   20.1830000  
O 15.5090000   19.9290000   17.6320000  
H 17.5670000   14.7790000   17.8980000  
H 18.3240000   13.1520000   18.6980000  
H 16.4470000   15.2320000   21.9320000  
H 14.4820000   20.1570000   21.1590000  
H 15.0870000   20.6270000   18.2470000  
C 15.2930000   17.9450000   22.2680000  
C 16.3150000   17.9370000   23.2680000  
C 15.9450000   17.9250000   24.6050000  
C 14.6200000   17.9820000   25.1260000  
C 13.6440000   18.0930000   24.1130000  
C 13.9550000   18.0150000   22.7500000  
C 17.7760000   17.7740000   23.2550000  
C 18.1970000   17.6220000   24.5720000  
N 17.0710000   17.7630000   25.3580000  
O 20.4090000   17.2450000   24.2070000  
C 19.5050000   17.3830000   25.1400000  
O 19.7540000   17.3130000   26.3310000  
O 12.3120000   18.2450000   24.4540000  
O 12.9120000   18.0800000   21.8120000  
H 18.3980000   17.6040000   22.3790000  
H 19.8700000   17.3760000   23.4070000  
H 17.0400000   17.7370000   26.4080000  
H 12.2210000   18.1180000   25.4020000  
H 12.0810000   18.0340000   22.3220000  
C 14.3160000   18.0070000   26.6260000  
C 13.6710000   19.1300000   27.2410000  
C 13.4520000   19.1640000   28.6120000  
C 13.6580000   18.0360000   29.3320000  
C 14.3590000   16.9110000   28.8510000  
C 14.6150000   16.9090000   27.4440000  
C 13.3880000   20.3930000   26.6460000  
C 12.9800000   21.1820000   27.7290000  
N 13.0850000   20.4560000   28.9470000  
O 12.6060000   23.1220000   26.4280000  
C 12.5690000   22.6440000   27.6310000  
O 12.2050000   23.3390000   28.5820000  
O 14.4550000   15.7230000   29.5790000  
O 14.9940000   15.6690000   26.9350000  
H 13.5160000   20.6750000   25.6490000  
H 13.0310000   22.4090000   25.9270000  
H 12.8120000   20.7510000   29.8560000  
H 15.4010000   15.6560000   29.7170000  
H 14.6780000   14.9150000   27.5340000  
H 13.3470000   18.1060000   30.3500000  
