76
000 
C 19.1860000   23.8180000   19.0720000  
C 18.4050000   24.9490000   19.6790000  
C 17.3290000   24.6590000   20.4420000  
C 16.9110000   23.3830000   20.7170000  
C 17.6480000   22.2450000   20.3750000  
C 18.8250000   22.3330000   19.5470000  
C 16.3760000   25.5290000   21.0370000  
C 15.3510000   24.7960000   21.7060000  
N 15.7910000   23.4650000   21.4980000  
O 13.8450000   26.5620000   22.2770000  
C 14.0740000   25.2150000   22.4010000  
O 13.2570000   24.4210000   22.8580000  
O 19.5870000   21.3850000   19.2730000  
O 20.1480000   24.1030000   18.3970000  
H 18.6200000   25.9750000   19.4310000  
H 16.3830000   26.6600000   20.8640000  
H 14.6910000   26.8690000   21.9050000  
H 15.4020000   22.6260000   21.9640000  
C 17.1170000   21.0020000   20.9090000  
C 16.5350000   20.0770000   19.9900000  
C 15.9750000   18.9470000   20.4530000  
C 16.1000000   18.4170000   21.7690000  
C 16.7820000   19.3130000   22.6710000  
C 17.2130000   20.5800000   22.2820000  
C 16.2550000   20.1440000   18.5890000  
C 15.6230000   18.9280000   18.2230000  
N 15.4650000   18.2130000   19.4010000  
O 15.6230000   19.3410000   16.0250000  
C 15.3680000   18.4010000   16.8940000  
O 14.9090000   17.3000000   16.6790000  
O 17.1320000   18.7960000   23.9150000  
O 17.8770000   21.4070000   23.1230000  
H 16.8180000   20.8530000   17.9170000  
H 15.6040000   20.2040000   16.4640000  
H 15.1160000   17.2530000   19.4610000  
H 16.8280000   17.8650000   24.0720000  
H 18.0560000   20.9340000   23.9450000  
C 15.6300000   17.0580000   22.1160000  
C 16.1320000   15.9040000   21.4660000  
C 15.5390000   14.7200000   21.7140000  
C 14.5460000   14.5310000   22.7260000  
C 14.0400000   15.6950000   23.3940000  
C 14.5850000   16.9190000   23.0890000  
C 17.0440000   15.7410000   20.3520000  
C 16.7650000   14.4450000   19.8790000  
N 16.0220000   13.7430000   20.8610000  
O 18.2430000   14.6380000   18.0160000  
C 17.4530000   13.7950000   18.7150000  
O 17.3190000   12.6570000   18.3370000  
O 13.0860000   15.6790000   24.3660000  
O 14.2230000   18.0190000   23.8760000  
H 17.7150000   16.3640000   19.9220000  
H 18.2260000   15.4420000   18.5760000  
H 15.9890000   12.7670000   21.0280000  
H 12.7910000   14.7620000   24.3830000  
H 13.3200000   17.9300000   24.2290000  
C 13.7890000   13.2960000   23.0020000  
C 13.7690000   12.7520000   24.2870000  
C 13.2390000   11.4820000   24.4920000  
C 12.7170000   10.6460000   23.4880000  
C 12.5940000   11.2450000   22.2210000  
C 13.0700000   12.5710000   22.0050000  
C 14.2590000   13.1950000   25.6220000  
C 14.0640000   12.1310000   26.5200000  
N 13.5430000   11.0680000   25.7980000  
O 15.0380000   13.2360000   28.4150000  
C 14.5450000   12.0800000   27.9420000  
O 14.3300000   11.1370000   28.6590000  
O 11.8390000   10.6310000   21.2710000  
O 13.0670000   12.9860000   20.7120000  
H 14.8270000   14.0580000   25.9420000  
H 15.3820000   13.6560000   27.5930000  
H 13.2740000   10.2210000   26.2960000  
H 11.7000000   11.1930000   20.4880000  
H 13.4970000   13.9240000   20.6260000  
H 12.3700000    9.6540000   23.7050000  
