76
000 
C 19.0090000   23.7120000   18.6540000  
C 18.1840000   23.9500000   17.4070000  
C 16.9020000   23.2490000   17.2950000  
C 16.3570000   22.4200000   18.2570000  
C 17.0860000   22.0330000   19.3460000  
C 18.3280000   22.7200000   19.7550000  
C 15.9690000   23.2400000   16.2210000  
C 14.8760000   22.4410000   16.5730000  
N 15.1350000   21.9680000   17.8560000  
O 13.7290000   22.7700000   14.4970000  
C 13.6970000   22.2310000   15.7120000  
O 12.8090000   21.5070000   16.1420000  
O 18.8580000   22.5850000   20.8840000  
O 20.1090000   24.1740000   18.8270000  
H 18.6140000   24.5860000   16.6700000  
H 16.0900000   23.7450000   15.2700000  
H 14.6050000   23.0490000   14.4010000  
H 14.6410000   21.2130000   18.2730000  
C 16.5550000   20.9350000   20.0630000  
C 16.8580000   19.6670000   19.7040000  
C 16.5270000   18.6980000   20.5590000  
C 15.5830000   18.7790000   21.6500000  
C 15.2590000   20.1600000   21.9930000  
C 15.7600000   21.2260000   21.2310000  
C 17.7260000   19.0750000   18.6910000  
C 17.6590000   17.7220000   18.9220000  
N 17.0400000   17.4980000   20.1470000  
O 18.9950000   16.9710000   17.0510000  
C 18.3300000   16.6510000   18.1970000  
O 18.3300000   15.4780000   18.6260000  
O 14.3970000   20.4680000   23.0170000  
O 15.4900000   22.5650000   21.5910000  
H 18.2810000   19.6050000   17.9110000  
H 18.5800000   17.8520000   16.9170000  
H 16.9170000   16.6120000   20.6190000  
H 14.2040000   19.8310000   23.6640000  
H 15.0510000   22.6780000   22.4620000  
C 15.0110000   17.6020000   22.3420000  
C 15.9060000   16.7490000   23.0610000  
C 15.4790000   15.4440000   23.4130000  
C 14.1670000   14.9300000   23.3060000  
C 13.3110000   15.8340000   22.6290000  
C 13.7270000   17.1460000   22.2090000  
C 17.3410000   16.7390000   23.2680000  
C 17.6750000   15.5380000   23.7720000  
N 16.5650000   14.7390000   23.9640000  
O 20.0720000   16.1000000   23.8460000  
C 19.0930000   15.1280000   24.0320000  
O 19.2990000   13.9740000   24.3730000  
O 12.0370000   15.4500000   22.4410000  
O 12.7940000   17.9150000   21.5900000  
H 18.0420000   17.4760000   22.9120000  
H 19.5790000   16.8850000   23.6170000  
H 16.4820000   13.7870000   24.3540000  
H 11.9430000   14.4890000   22.6400000  
H 11.9530000   17.5450000   21.7800000  
C 13.7080000   13.6280000   23.9090000  
C 13.6140000   13.5060000   25.2870000  
C 13.1290000   12.3410000   25.8630000  
C 12.8010000   11.1880000   25.1100000  
C 13.0120000   11.2560000   23.7400000  
C 13.3710000   12.4780000   23.1740000  
C 13.9090000   14.3970000   26.4010000  
C 13.5380000   13.7740000   27.5560000  
N 12.9980000   12.4570000   27.2250000  
O 14.1710000   15.6880000   28.8890000  
C 13.5190000   14.4880000   28.8640000  
O 12.9670000   13.9510000   29.7750000  
O 12.6610000   10.2750000   22.8840000  
O 13.5510000   12.5030000   21.8450000  
H 14.1450000   15.4490000   26.2290000  
H 14.6570000   15.9520000   28.0800000  
H 12.8290000   11.6990000   27.8510000  
H 12.0310000    9.6390000   23.3180000  
H 13.3410000   11.6500000   21.6400000  
H 12.3980000   10.2830000   25.5790000  
