76
000 
C 18.8450000   20.4120000   15.4620000  
C 18.1960000   19.7060000   14.3240000  
C 17.1970000   18.8530000   14.6450000  
C 16.6430000   18.7040000   15.9700000  
C 17.0550000   19.3960000   17.0170000  
C 18.2390000   20.2110000   16.9130000  
C 16.4140000   17.9220000   13.8520000  
C 15.4590000   17.2430000   14.6220000  
N 15.6070000   17.7730000   15.9300000  
O 14.6360000   16.0970000   12.7400000  
C 14.4620000   16.3050000   14.0760000  
O 13.4980000   15.8700000   14.6840000  
O 18.7710000   20.7220000   17.9080000  
O 19.8240000   21.1410000   15.3020000  
H 18.6140000   19.8550000   13.2980000  
H 16.5480000   17.7780000   12.8130000  
H 15.5740000   16.3210000   12.5560000  
H 14.9630000   17.6660000   16.7010000  
C 16.3770000   19.0960000   18.2660000  
C 16.4820000   17.8420000   18.7920000  
C 15.8250000   17.4680000   19.9260000  
C 15.3890000   18.4420000   20.8310000  
C 15.3920000   19.8050000   20.3370000  
C 15.8120000   20.1470000   19.0520000  
C 17.2290000   16.6580000   18.3650000  
C 16.7960000   15.6040000   19.1790000  
N 16.0200000   16.1410000   20.2080000  
O 17.9230000   13.8190000   17.9840000  
C 17.2230000   14.2250000   19.0860000  
O 16.9880000   13.4300000   20.0140000  
O 14.7730000   20.7570000   21.1870000  
O 15.6870000   21.4730000   18.6250000  
H 17.9770000   16.6400000   17.6110000  
H 18.0660000   14.5770000   17.4110000  
H 15.7400000   15.5950000   20.9740000  
H 14.3110000   20.3630000   21.9530000  
H 15.6900000   21.9290000   19.4410000  
C 14.8600000   18.0210000   22.1860000  
C 15.7820000   17.5450000   23.1710000  
C 15.2760000   17.0650000   24.4000000  
C 13.9210000   17.0130000   24.8160000  
C 13.0170000   17.3380000   23.8350000  
C 13.4980000   17.9010000   22.6050000  
C 17.2400000   17.4590000   23.1800000  
C 17.5410000   17.1270000   24.4690000  
N 16.3850000   16.8160000   25.1870000  
O 19.9120000   17.5000000   24.3010000  
C 18.9230000   16.9680000   25.0170000  
O 19.1580000   16.5470000   26.1180000  
O 11.6620000   17.2460000   24.0520000  
O 12.6880000   18.2390000   21.5580000  
H 17.9220000   17.5870000   22.3500000  
H 19.5210000   17.7470000   23.4770000  
H 16.4250000   16.5790000   26.1260000  
H 11.4070000   17.0430000   24.9420000  
H 11.7530000   18.1080000   21.8410000  
C 13.5970000   16.4680000   26.2080000  
C 13.7440000   17.3590000   27.2980000  
C 13.6320000   16.8620000   28.5650000  
C 13.2080000   15.5270000   28.8190000  
C 13.0160000   14.6490000   27.7750000  
C 13.2000000   15.1280000   26.4840000  
C 14.2400000   18.7390000   27.4290000  
C 14.3350000   18.9930000   28.7640000  
N 14.0500000   17.7900000   29.4960000  
O 14.6130000   21.3220000   28.3620000  
C 14.4020000   20.3660000   29.3320000  
O 14.2990000   20.6040000   30.5260000  
O 12.5820000   13.3620000   28.0140000  
O 13.2340000   14.2890000   25.3970000  
H 14.3990000   19.4190000   26.6070000  
H 14.5250000   20.7550000   27.5990000  
H 13.8800000   17.7700000   30.4440000  
H 12.8420000   13.0580000   28.9210000  
H 12.9660000   13.4360000   25.6700000  
H 13.1750000   15.1550000   29.8290000  
