76
001 
C 12.5000000   25.0970000   20.1810000  
C 12.4450000   25.5780000   21.6170000  
C 12.7710000   24.7220000   22.6880000  
C 13.3100000   23.4640000   22.4830000  
C 13.4780000   22.9270000   21.1920000  
C 13.0400000   23.6510000   19.9890000  
C 12.9300000   24.9400000   24.0850000  
C 13.3950000   23.7880000   24.7210000  
N 13.6480000   22.9070000   23.6660000  
O 13.5790000   24.4810000   26.9960000  
C 13.5990000   23.4130000   26.1880000  
O 13.8750000   22.3100000   26.5820000  
O 13.2800000   23.1600000   18.8900000  
O 12.1800000   25.7510000   19.2600000  
H 12.1250000   26.5810000   21.9000000  
H 12.7400000   25.8880000   24.6250000  
H 13.3270000   25.2630000   26.5150000  
H 13.8950000   21.9550000   23.7540000  
C 14.2230000   21.6460000   21.0610000  
C 13.5440000   20.4820000   21.3710000  
C 14.2620000   19.3120000   21.5130000  
C 15.6480000   19.1880000   21.3960000  
C 16.3420000   20.3560000   20.9450000  
C 15.6180000   21.5760000   20.7280000  
C 12.1610000   20.2310000   21.6630000  
C 12.1120000   18.8450000   22.0170000  
N 13.4500000   18.2840000   21.8740000  
O  9.7130000   18.7040000   22.4970000  
C 10.9000000   18.0560000   22.4530000  
O 10.9310000   16.9030000   22.8620000  
O 17.6810000   20.3790000   20.5950000  
O 16.2200000   22.6440000   20.1800000  
H 11.3610000   20.9400000   21.7340000  
H  9.8800000   19.6020000   22.2820000  
H 13.5420000   17.2940000   22.0020000  
H 18.0440000   19.4950000   20.6820000  
H 16.8500000   22.2260000   19.5030000  
C 16.3350000   17.8490000   21.5450000  
C 15.8610000   16.6900000   20.8340000  
C 16.5710000   15.5570000   21.0360000  
C 17.7180000   15.4140000   21.8460000  
C 18.0850000   16.5800000   22.6540000  
C 17.4300000   17.7790000   22.4260000  
C 14.8060000   16.4770000   19.8910000  
C 14.8890000   15.1250000   19.6170000  
N 16.0130000   14.5850000   20.2940000  
O 13.0820000   15.2200000   18.0960000  
C 13.9280000   14.4100000   18.7470000  
O 13.8430000   13.1930000   18.6480000  
O 19.1550000   16.4510000   23.4830000  
O 17.8650000   18.8980000   23.1100000  
H 14.0660000   17.2340000   19.5370000  
H 13.4380000   16.0540000   18.4760000  
H 16.2460000   13.6360000   20.3950000  
H 19.5230000   15.5860000   23.3620000  
H 18.5530000   18.6580000   23.6630000  
C 18.3550000   14.1320000   21.9690000  
C 19.6390000   13.8010000   21.3420000  
C 20.1440000   12.5810000   21.5130000  
C 19.5950000   11.5650000   22.3230000  
C 18.3800000   11.8510000   22.9700000  
C 17.8330000   13.1470000   22.8400000  
C 20.5700000   14.5940000   20.5470000  
C 21.6740000   13.8080000   20.4070000  
N 21.3800000   12.5260000   20.9510000  
O 23.0350000   15.4470000   19.3320000  
C 22.9420000   14.1660000   19.7620000  
O 23.9430000   13.4740000   19.7170000  
O 17.7830000   10.9430000   23.8040000  
O 16.8290000   13.5080000   23.7650000  
H 20.5210000   15.6650000   20.2040000  
H 22.1710000   15.8400000   19.4310000  
H 22.1940000   11.8550000   21.1210000  
H 16.8840000   11.3420000   24.0080000  
H 16.5030000   14.4160000   23.4830000  
H 20.1140000   10.5910000   22.4370000  
