76
001 
C 10.7080000   12.3130000   22.5340000  
C 11.7320000   11.2570000   22.6370000  
C 13.0290000   11.6440000   22.5690000  
C 13.5210000   12.9850000   22.5110000  
C 12.7110000   14.0500000   22.5230000  
C 11.2210000   13.7900000   22.4870000  
C 14.1910000   10.8720000   22.4590000  
C 15.3110000   11.6670000   22.3360000  
N 14.8500000   12.9810000   22.3730000  
O 16.8810000    9.9600000   22.1790000  
C 16.6740000   11.2780000   22.1630000  
O 17.5760000   12.0900000   21.9710000  
O 10.4080000   14.7060000   22.6220000  
O  9.4810000   12.0570000   22.6100000  
H 11.4310000   10.2000000   22.4940000  
H 14.1170000    9.7750000   22.3030000  
H 16.0040000    9.6320000   22.0090000  
H 15.4210000   13.7870000   22.2910000  
C 13.4140000   15.3300000   22.3840000  
C 13.3690000   16.0330000   21.1620000  
C 14.0650000   17.2580000   21.0220000  
C 14.7830000   17.8340000   22.0080000  
C 14.8620000   17.1370000   23.2030000  
C 14.1790000   15.9500000   23.4160000  
C 12.6000000   15.7810000   19.9300000  
C 13.0520000   16.8290000   19.0890000  
N 13.9170000   17.7500000   19.7420000  
O 11.8880000   15.9680000   17.2340000  
C 12.7080000   17.0150000   17.6620000  
O 12.9400000   18.0290000   17.0010000  
O 15.6660000   17.5670000   24.2840000  
O 14.2980000   15.3380000   24.5930000  
H 11.7830000   15.0790000   19.7680000  
H 11.6430000   15.4050000   18.0120000  
H 14.4110000   18.5810000   19.4130000  
H 15.8270000   18.5030000   24.0510000  
H 13.9010000   14.4630000   24.4080000  
C 15.6610000   19.0780000   21.7560000  
C 15.2800000   20.4600000   21.8830000  
C 16.2240000   21.3850000   21.5830000  
C 17.5620000   21.1940000   21.1710000  
C 17.9330000   19.8550000   21.0150000  
C 16.9920000   18.8040000   21.3180000  
C 13.9560000   21.0690000   22.1280000  
C 14.2390000   22.4050000   22.1420000  
N 15.6080000   22.6580000   21.8090000  
O 12.1470000   23.2290000   22.9900000  
C 13.3670000   23.5460000   22.4370000  
O 13.6310000   24.7370000   22.2700000  
O 19.2160000   19.5740000   20.5050000  
O 17.3570000   17.4120000   21.1260000  
H 13.0800000   20.6280000   22.4800000  
H 12.2490000   22.2690000   23.2340000  
H 16.1860000   23.4880000   21.6990000  
H 19.5810000   20.3310000   20.0310000  
H 18.0880000   17.4090000   20.5310000  
C 18.5420000   22.2690000   20.9730000  
C 19.7750000   22.3590000   21.6610000  
C 20.6490000   23.3740000   21.3910000  
C 20.4380000   24.4080000   20.4720000  
C 19.2100000   24.3720000   19.8000000  
C 18.2860000   23.3210000   20.0150000  
C 20.3490000   21.4670000   22.7020000  
C 21.5630000   22.0950000   23.1110000  
N 21.7520000   23.1690000   22.2100000  
O 22.1270000   20.4890000   24.7650000  
C 22.4840000   21.6210000   24.0890000  
O 23.5890000   22.1140000   24.2700000  
O 18.9150000   25.3350000   18.8620000  
O 17.1560000   23.2510000   19.2630000  
H 19.8920000   20.5650000   23.1590000  
H 21.2360000   20.1370000   24.4980000  
H 22.6010000   23.6790000   22.1710000  
H 18.0020000   25.0820000   18.4750000  
H 16.7250000   22.3620000   19.1620000  
H 21.1680000   25.2040000   20.2990000  
