76
001 
C  8.6130000   19.5800000   19.0540000  
C  8.9650000   20.7090000   18.1220000  
C 10.3150000   21.0020000   17.8350000  
C 11.3600000   20.3340000   18.4150000  
C 11.2110000   19.4300000   19.4230000  
C  9.8670000   18.9460000   19.8170000  
C 10.9130000   21.8890000   16.8910000  
C 12.3170000   21.7920000   17.0050000  
N 12.5860000   20.7910000   17.9590000  
O 13.0540000   23.4440000   15.3980000  
C 13.3830000   22.4390000   16.1780000  
O 14.4910000   22.0670000   16.0550000  
O  9.7260000   18.0150000   20.5450000  
O  7.4750000   19.0890000   19.2360000  
H  8.1660000   21.2260000   17.6400000  
H 10.3290000   22.5120000   16.1680000  
H 12.0950000   23.6070000   15.6060000  
H 13.5390000   20.4510000   18.3490000  
C 12.4090000   18.9520000   20.0530000  
C 12.9690000   19.6230000   21.1600000  
C 14.1270000   19.2680000   21.8050000  
C 14.8640000   18.1000000   21.3920000  
C 14.2670000   17.3710000   20.3650000  
C 13.0970000   17.7330000   19.6900000  
C 12.6010000   20.8710000   21.8290000  
C 13.6220000   21.1510000   22.7010000  
N 14.4950000   20.0740000   22.7500000  
O 12.8470000   23.3340000   23.0230000  
C 13.7430000   22.4210000   23.4250000  
O 14.5320000   22.5820000   24.3410000  
O 14.8850000   16.1970000   20.1170000  
O 12.6560000   17.0430000   18.5240000  
H 11.6260000   21.4090000   21.7870000  
H 12.4350000   23.0150000   22.1990000  
H 15.3410000   19.9280000   23.2080000  
H 15.7220000   16.2450000   20.4540000  
H 13.4190000   16.5910000   18.0860000  
C 16.1540000   17.7240000   22.0950000  
C 16.2210000   16.5520000   22.8860000  
C 17.3080000   16.2780000   23.6590000  
C 18.4670000   17.0000000   23.6060000  
C 18.4020000   18.1730000   22.7880000  
C 17.2680000   18.5440000   22.0490000  
C 15.2520000   15.5010000   23.2120000  
C 15.8950000   14.5890000   24.1070000  
N 17.1310000   15.1380000   24.4570000  
O 14.0630000   13.0850000   24.2460000  
C 15.3530000   13.2970000   24.5110000  
O 15.9240000   12.4170000   25.0720000  
O 19.5370000   18.9060000   22.5950000  
O 17.2920000   19.7000000   21.3020000  
H 14.2300000   15.4300000   22.8620000  
H 13.7010000   13.9260000   23.8330000  
H 17.8380000   14.7100000   25.0780000  
H 20.2770000   18.5550000   23.1120000  
H 18.1380000   20.0640000   21.4020000  
C 19.7470000   16.7030000   24.3910000  
C 20.9870000   16.5840000   23.7110000  
C 22.1710000   16.4450000   24.3770000  
C 22.2790000   16.4500000   25.7510000  
C 21.0830000   16.5550000   26.4820000  
C 19.8360000   16.6590000   25.7960000  
C 21.3260000   16.5400000   22.2990000  
C 22.6830000   16.3410000   22.1450000  
N 23.1840000   16.2010000   23.4730000  
O 22.6730000   16.0430000   19.8290000  
C 23.4940000   16.1900000   20.8880000  
O 24.6940000   16.1730000   20.8430000  
O 21.1050000   16.5500000   27.8470000  
O 18.6720000   16.8170000   26.4450000  
H 20.6740000   16.5510000   21.4250000  
H 21.7890000   16.1700000   20.1660000  
H 24.1360000   16.0180000   23.7660000  
H 20.1730000   16.5200000   28.0570000  
H 18.0100000   16.9680000   25.8050000  
H 23.1850000   16.3970000   26.3480000  
