76
001 
C 17.7580000   12.9100000   26.3290000  
C 16.5320000   12.7310000   27.2210000  
C 15.4080000   13.4870000   27.0800000  
C 15.3110000   14.5010000   26.0850000  
C 16.4070000   14.8230000   25.2940000  
C 17.7030000   14.1030000   25.2860000  
C 14.1090000   13.5780000   27.7830000  
C 13.3280000   14.5770000   27.1680000  
N 14.1330000   15.1330000   26.2370000  
O 11.2300000   14.2840000   28.4060000  
C 11.9760000   15.0220000   27.5020000  
O 11.4840000   15.9590000   26.8680000  
O 18.6630000   14.2020000   24.5350000  
O 18.7940000   12.2430000   26.5260000  
H 16.6820000   12.0190000   28.0210000  
H 13.7650000   12.9940000   28.6230000  
H 11.8350000   13.6120000   28.6600000  
H 13.8020000   15.9520000   25.7000000  
C 16.1300000   15.8920000   24.3760000  
C 16.6650000   17.1620000   24.6440000  
C 16.3270000   18.2040000   23.8040000  
C 15.6500000   18.0840000   22.5830000  
C 15.0390000   16.7740000   22.3030000  
C 15.3010000   15.7240000   23.2490000  
C 17.4870000   17.7270000   25.7190000  
C 17.5900000   19.1110000   25.4500000  
N 16.9600000   19.3360000   24.2150000  
O 18.9300000   19.6620000   27.3340000  
C 18.3200000   20.0860000   26.2090000  
O 18.4130000   21.2530000   25.9060000  
O 14.3460000   16.5140000   21.2070000  
O 14.7300000   14.5420000   23.1470000  
H 18.0200000   17.2900000   26.5690000  
H 18.5620000   18.7980000   27.5720000  
H 17.0480000   20.2470000   23.7530000  
H 14.2960000   17.2660000   20.5790000  
H 14.4140000   14.6020000   22.2290000  
C 15.7180000   19.0890000   21.5550000  
C 16.3720000   18.7980000   20.3370000  
C 16.3630000   19.6740000   19.3220000  
C 15.5600000   20.8480000   19.3430000  
C 14.7800000   21.0910000   20.5430000  
C 14.9500000   20.2780000   21.6310000  
C 17.2760000   17.7180000   19.9360000  
C 17.7770000   18.1550000   18.6370000  
N 17.1310000   19.3660000   18.2980000  
O 19.4360000   16.4550000   18.5540000  
C 18.8210000   17.4490000   17.8720000  
O 19.2940000   17.7940000   16.8230000  
O 13.9090000   22.1150000   20.6250000  
O 14.3000000   20.6090000   22.8040000  
H 17.5780000   16.8990000   20.5080000  
H 19.1000000   16.5000000   19.4600000  
H 17.2120000   19.8350000   17.3710000  
H 13.9560000   22.6710000   19.7710000  
H 13.6970000   21.3750000   22.7490000  
C 15.5370000   21.7840000   18.1320000  
C 15.1100000   21.3450000   16.8770000  
C 14.9250000   22.2110000   15.7770000  
C 15.3120000   23.5300000   15.8380000  
C 15.9570000   23.9670000   17.0140000  
C 15.9930000   23.1180000   18.1460000  
C 14.6020000   20.0730000   16.3550000  
C 14.1120000   20.2450000   15.0650000  
N 14.3750000   21.5470000   14.7270000  
O 13.5010000   18.0320000   14.6610000  
C 13.4530000   19.2380000   14.2070000  
O 13.0210000   19.5210000   13.1360000  
O 16.6580000   25.1350000   16.8900000  
O 16.6550000   23.5000000   19.2340000  
H 14.5380000   19.1860000   16.9760000  
H 13.8540000   18.2210000   15.5950000  
H 14.0880000   21.9640000   13.8920000  
H 17.1170000   25.2200000   17.7830000  
H 16.3960000   22.7520000   19.8710000  
H 15.2050000   24.1890000   14.9700000  
