76
001 
C 11.0640000   12.0960000   23.4020000  
C 12.1240000   11.3700000   24.1380000  
C 13.4050000   11.8580000   24.2140000  
C 13.7770000   13.0750000   23.6850000  
C 12.9280000   13.9730000   23.1050000  
C 11.5340000   13.4970000   22.8250000  
C 14.6060000   11.3420000   24.8470000  
C 15.6720000   12.2200000   24.5560000  
N 15.1050000   13.2960000   23.8620000  
O 17.0650000   11.1330000   26.0380000  
C 17.0280000   12.1010000   25.1540000  
O 17.9830000   12.8470000   24.9060000  
O 10.7560000   14.1640000   22.1600000  
O  9.9370000   11.6540000   23.2350000  
H 11.8420000   10.4610000   24.6150000  
H 14.6350000   10.3980000   25.4900000  
H 16.1520000   10.7830000   26.1280000  
H 15.5790000   14.1410000   23.6220000  
C 13.4880000   15.2630000   22.5730000  
C 13.6960000   15.5630000   21.2540000  
C 14.4190000   16.7000000   20.9580000  
C 14.9060000   17.6550000   21.8300000  
C 14.4050000   17.4960000   23.1600000  
C 13.8090000   16.2770000   23.5540000  
C 13.6790000   14.7000000   20.0980000  
C 14.3390000   15.4620000   19.1440000  
N 14.7970000   16.6760000   19.6600000  
O 13.8420000   13.9110000   17.5360000  
C 14.3140000   15.1480000   17.7110000  
O 14.6470000   15.9000000   16.7760000  
O 14.8340000   18.3830000   24.0990000  
O 13.3970000   16.0360000   24.8600000  
H 13.1290000   13.7830000   20.0390000  
H 13.5130000   13.8050000   18.4450000  
H 15.4770000   17.3240000   19.2080000  
H 15.4550000   18.8920000   23.6740000  
H 12.8340000   15.2150000   24.8570000  
C 15.7040000   18.8400000   21.3450000  
C 15.2130000   20.1230000   21.1720000  
C 15.9940000   21.1680000   20.9630000  
C 17.4040000   21.0610000   20.6870000  
C 17.9400000   19.8030000   20.8830000  
C 17.0840000   18.7360000   21.1880000  
C 13.8850000   20.7010000   21.3440000  
C 14.0040000   22.0590000   20.9810000  
N 15.3690000   22.3110000   20.8150000  
O 11.6850000   22.4500000   21.3530000  
C 12.8290000   23.0070000   20.9350000  
O 12.9320000   24.1300000   20.4510000  
O 19.3050000   19.6920000   20.9060000  
O 17.6810000   17.5210000   21.3190000  
H 12.9710000   20.1100000   21.4990000  
H 11.9320000   21.7440000   21.9760000  
H 15.7100000   23.1950000   20.5190000  
H 19.5280000   20.3640000   20.2770000  
H 18.6850000   17.6110000   21.1670000  
C 18.1770000   22.2600000   20.1670000  
C 19.2440000   22.8290000   20.8260000  
C 20.0350000   23.8100000   20.2390000  
C 19.6940000   24.4130000   19.0360000  
C 18.6020000   23.8560000   18.3420000  
C 17.8280000   22.8060000   18.8880000  
C 19.8240000   22.6300000   22.1700000  
C 20.8360000   23.6100000   22.3520000  
N 20.9560000   24.3130000   21.1400000  
O 21.3360000   23.0840000   24.5980000  
C 21.6380000   23.8670000   23.5500000  
O 22.4860000   24.7030000   23.6950000  
O 18.2280000   24.3650000   17.1090000  
O 16.7210000   22.3110000   18.2130000  
H 19.5320000   21.8730000   22.9780000  
H 20.6130000   22.4840000   24.3470000  
H 21.5710000   25.0600000   20.9300000  
H 17.5060000   23.8110000   16.8120000  
H 16.2130000   21.6900000   18.7360000  
H 20.2180000   25.2460000   18.5850000  
