76
001 
C 19.1690000   20.2360000   27.6210000  
C 18.4260000   19.8130000   28.8940000  
C 17.1480000   19.2680000   28.7850000  
C 16.5330000   18.8680000   27.5720000  
C 17.0650000   19.1780000   26.3270000  
C 18.4160000   19.9670000   26.2710000  
C 16.2930000   18.7530000   29.7700000  
C 15.2020000   18.0640000   29.1270000  
N 15.4200000   18.1810000   27.7770000  
O 13.9350000   17.3660000   31.0830000  
C 14.0280000   17.4570000   29.7290000  
O 13.1890000   17.0450000   28.9590000  
O 19.0140000   20.3660000   25.2510000  
O 20.3330000   20.7030000   27.5930000  
H 19.0240000   20.0260000   29.8390000  
H 16.5260000   18.8320000   30.8190000  
H 14.7650000   17.7030000   31.5010000  
H 14.8730000   17.7600000   27.0110000  
C 16.3650000   18.6380000   25.2010000  
C 15.4860000   19.4790000   24.4550000  
C 15.0700000   19.1220000   23.1890000  
C 15.2490000   17.8340000   22.6290000  
C 16.0300000   16.9550000   23.4460000  
C 16.6100000   17.3240000   24.6960000  
C 15.0040000   20.7830000   24.7420000  
C 14.2360000   21.1580000   23.5760000  
N 14.2260000   20.0680000   22.6710000  
O 14.0090000   23.3280000   24.3740000  
C 13.6150000   22.4700000   23.4420000  
O 12.8970000   22.8570000   22.5400000  
O 16.1740000   15.6440000   23.0260000  
O 17.4650000   16.4540000   25.3830000  
H 15.2630000   21.4250000   25.6020000  
H 14.7880000   22.8630000   24.7120000  
H 13.8810000   20.0450000   21.7440000  
H 15.7650000   15.5670000   22.1260000  
H 17.4170000   15.6140000   24.9530000  
C 14.9260000   17.5560000   21.1890000  
C 15.4550000   18.3760000   20.1760000  
C 15.3420000   18.0550000   18.8620000  
C 14.6670000   16.9530000   18.3860000  
C 14.0630000   16.1350000   19.3930000  
C 14.2320000   16.3970000   20.7950000  
C 16.3820000   19.5370000   20.2670000  
C 16.7070000   19.7720000   18.9500000  
N 15.9860000   18.9770000   18.0960000  
O 18.2100000   21.7000000   19.1690000  
C 17.6610000   20.6980000   18.3470000  
O 17.8620000   20.6700000   17.1280000  
O 13.3100000   14.9890000   19.0600000  
O 13.6690000   15.6140000   21.7020000  
H 16.7990000   20.0480000   21.1660000  
H 17.6460000   21.5370000   19.9160000  
H 16.1600000   18.7980000   17.0890000  
H 13.6090000   14.6900000   18.1600000  
H 12.9490000   15.1830000   21.1960000  
C 14.5430000   16.6740000   16.9120000  
C 15.6820000   16.4920000   16.0190000  
C 15.4660000   16.1990000   14.6880000  
C 14.1900000   16.1890000   14.1950000  
C 13.0740000   16.5080000   14.9700000  
C 13.2660000   16.6290000   16.3680000  
C 17.0880000   16.4780000   16.3170000  
C 17.7110000   16.2560000   15.0900000  
N 16.6760000   15.9330000   14.1840000  
O 19.7660000   16.2380000   16.1000000  
C 19.1660000   16.0480000   14.9410000  
O 19.7690000   15.7830000   13.9240000  
O 11.8660000   16.4860000   14.3840000  
O 12.2480000   16.9640000   17.2220000  
H 17.5340000   16.5970000   17.2940000  
H 18.9820000   16.3570000   16.6920000  
H 16.8750000   15.6510000   13.2310000  
H 11.2190000   16.3090000   15.0160000  
H 12.6090000   17.0840000   18.1180000  
H 14.0150000   16.0140000   13.1390000  
