76
001 
C  8.5310000   16.2920000   19.6100000  
C  8.8190000   15.2390000   18.6120000  
C 10.1460000   15.0170000   18.3750000  
C 11.2120000   15.5580000   19.1150000  
C 11.0840000   16.4940000   20.0830000  
C  9.7150000   16.9780000   20.4570000  
C 10.7330000   14.1710000   17.4050000  
C 12.1000000   14.0990000   17.5890000  
N 12.3210000   14.9870000   18.6670000  
O 12.6510000   12.5000000   15.9540000  
C 13.1810000   13.3490000   16.8740000  
O 14.3930000   13.3440000   17.0020000  
O  9.4200000   17.8180000   21.3300000  
O  7.4070000   16.6500000   19.7900000  
H  8.0320000   14.7240000   18.0560000  
H 10.1590000   13.6040000   16.6600000  
H 11.8770000   12.9820000   15.6880000  
H 13.1710000   15.0900000   19.2160000  
C 12.3520000   17.0170000   20.5960000  
C 12.9320000   18.0420000   19.9360000  
C 14.0120000   18.6780000   20.4130000  
C 14.6990000   18.2800000   21.5870000  
C 14.2320000   17.0960000   22.2520000  
C 12.9440000   16.5210000   21.7540000  
C 12.4990000   18.6620000   18.7220000  
C 13.4400000   19.7480000   18.5970000  
N 14.3270000   19.7620000   19.6280000  
O 12.6210000   20.5530000   16.5370000  
C 13.4880000   20.7410000   17.5190000  
O 14.2480000   21.6760000   17.5920000  
O 14.9460000   16.5020000   23.2810000  
O 12.3980000   15.4590000   22.3900000  
H 11.7230000   18.3490000   18.0170000  
H 11.9730000   19.9330000   16.8100000  
H 14.9940000   20.4810000   19.8940000  
H 15.8540000   16.9410000   23.1670000  
H 12.8990000   15.3640000   23.2150000  
C 16.0800000   18.8410000   21.9270000  
C 16.3550000   19.4330000   23.2060000  
C 17.6490000   19.9090000   23.4680000  
C 18.7730000   19.8410000   22.6200000  
C 18.5220000   19.2270000   21.3650000  
C 17.1970000   18.7730000   20.9880000  
C 15.7440000   19.3980000   24.5250000  
C 16.6590000   19.9710000   25.4480000  
N 17.8090000   20.3630000   24.7700000  
O 15.2440000   19.5780000   27.3430000  
C 16.3710000   20.1270000   26.8730000  
O 17.1460000   20.6950000   27.6700000  
O 19.5940000   18.9260000   20.5540000  
O 16.9110000   18.2560000   19.7490000  
H 14.8050000   18.9110000   24.7570000  
H 14.9870000   19.1170000   26.5670000  
H 18.6340000   20.5700000   25.2360000  
H 20.3710000   19.5320000   20.6230000  
H 17.6950000   18.3050000   19.2630000  
C 20.1370000   20.3130000   23.0150000  
C 20.9200000   19.7080000   24.0020000  
C 22.0970000   20.1980000   24.5550000  
C 22.7460000   21.3530000   24.0380000  
C 22.0430000   22.0220000   22.9800000  
C 20.7360000   21.5340000   22.5790000  
C 20.6520000   18.5020000   24.7450000  
C 21.7420000   18.2710000   25.6160000  
N 22.5880000   19.3910000   25.5330000  
O 21.0960000   16.1270000   26.7380000  
C 21.9980000   17.1570000   26.6210000  
O 23.0130000   17.1780000   27.3220000  
O 22.5870000   23.0810000   22.3400000  
O 20.2000000   22.1240000   21.5020000  
H 19.8590000   17.7490000   24.5700000  
H 20.5620000   16.2620000   25.9200000  
H 23.3280000   19.5660000   26.1620000  
H 21.9820000   23.3800000   21.6740000  
H 19.3270000   21.6740000   21.2830000  
H 23.7890000   21.6150000   24.4840000  
