76
001 
C 10.3290000   13.0590000   20.7540000  
C 10.7440000   11.9720000   21.6690000  
C 11.8760000   12.2160000   22.4420000  
C 12.5630000   13.4050000   22.4440000  
C 12.3910000   14.4510000   21.5840000  
C 11.2820000   14.2980000   20.6100000  
C 12.5350000   11.3920000   23.3450000  
C 13.6730000   12.0910000   23.8540000  
N 13.5450000   13.3730000   23.3590000  
O 14.5340000   10.3040000   25.2380000  
C 14.6440000   11.6120000   24.8530000  
O 15.4970000   12.3150000   25.3320000  
O 11.0670000   15.1720000   19.7090000  
O  9.3140000   12.8860000   20.0880000  
H 10.2800000   10.9460000   21.6670000  
H 12.2980000   10.3780000   23.5960000  
H 13.8320000    9.9380000   24.6860000  
H 14.1750000   14.1490000   23.4710000  
C 13.3350000   15.5180000   21.5970000  
C 14.7270000   15.3420000   21.3560000  
C 15.5970000   16.3660000   21.4140000  
C 15.2170000   17.6950000   21.6530000  
C 13.8160000   17.9370000   21.8910000  
C 12.8860000   16.8300000   21.8110000  
C 15.4960000   14.2220000   20.9030000  
C 16.8050000   14.6750000   20.6660000  
N 16.8570000   16.0440000   21.0420000  
O 17.6530000   12.5210000   20.1080000  
C 17.9610000   13.8060000   20.2930000  
O 19.1150000   14.1960000   20.1530000  
O 13.3780000   19.2060000   22.0270000  
O 11.6500000   17.1130000   22.2410000  
H 15.1550000   13.1940000   20.8410000  
H 16.6870000   12.4900000   20.3230000  
H 17.7260000   16.6270000   21.0240000  
H 14.0330000   19.8010000   21.6320000  
H 11.4790000   18.1010000   22.4420000  
C 16.1440000   18.8360000   21.6390000  
C 16.0200000   19.7010000   20.5210000  
C 16.8610000   20.8110000   20.5150000  
C 17.9120000   21.0450000   21.4370000  
C 18.0570000   20.1230000   22.4880000  
C 17.1480000   18.9970000   22.6110000  
C 15.1220000   19.8540000   19.3680000  
C 15.5470000   21.0790000   18.7440000  
N 16.5340000   21.7010000   19.5280000  
O 14.1220000   20.9660000   16.8640000  
C 15.0480000   21.6420000   17.5050000  
O 15.4260000   22.6400000   16.9440000  
O 18.9750000   20.3310000   23.4570000  
O 17.4570000   18.1240000   23.5800000  
H 14.3160000   19.2010000   19.0120000  
H 14.0310000   20.2280000   17.4400000  
H 17.0090000   22.5730000   19.2850000  
H 19.4570000   21.1350000   23.1710000  
H 17.9490000   18.6470000   24.2270000  
C 18.7000000   22.3100000   21.3990000  
C 18.7270000   23.1850000   22.4770000  
C 19.3770000   24.4200000   22.3750000  
C 20.0640000   24.8540000   21.2130000  
C 20.1590000   23.9240000   20.1610000  
C 19.5490000   22.6490000   20.2520000  
C 18.0060000   23.1770000   23.7790000  
C 18.4020000   24.3720000   24.4300000  
N 19.2530000   25.1470000   23.5780000  
O 16.7110000   23.9260000   26.1050000  
C 17.7120000   24.7730000   25.7030000  
O 17.9510000   25.7740000   26.3460000  
O 20.9950000   24.2890000   19.1810000  
O 19.6080000   21.7350000   19.1630000  
H 17.1770000   22.5330000   24.0870000  
H 16.5420000   23.2980000   25.3260000  
H 19.7450000   26.0090000   23.8310000  
H 20.9500000   23.7440000   18.3940000  
H 18.9460000   21.0990000   19.4430000  
H 20.3360000   25.9350000   21.2570000  
