76
001 
C  9.1660000   20.5240000   18.5100000  
C  9.4570000   21.9310000   18.2750000  
C 10.6800000   22.4400000   18.5780000  
C 11.7710000   21.6600000   19.1100000  
C 11.5760000   20.3790000   19.4800000  
C 10.3350000   19.7050000   19.1820000  
C 11.2810000   23.6900000   18.4090000  
C 12.5690000   23.7740000   19.0030000  
N 12.8370000   22.4760000   19.5070000  
O 12.8470000   26.1400000   18.9290000  
C 13.3660000   24.9380000   19.4700000  
O 14.2600000   24.9380000   20.2730000  
O 10.2420000   18.5580000   19.5390000  
O  8.0750000   20.0670000   18.2820000  
H  8.6950000   22.5350000   17.8120000  
H 10.7250000   24.5160000   17.9920000  
H 12.0110000   25.9370000   18.4960000  
H 13.7160000   22.2500000   19.9050000  
C 12.7970000   19.7550000   19.9630000  
C 13.1840000   19.9160000   21.3330000  
C 14.2940000   19.3000000   21.8370000  
C 15.1600000   18.4950000   21.1070000  
C 14.8530000   18.3950000   19.7270000  
C 13.6290000   19.0310000   19.1960000  
C 12.5950000   20.6950000   22.4100000  
C 13.3170000   20.3860000   23.5330000  
N 14.4250000   19.5240000   23.2290000  
O 11.8430000   21.5560000   24.8910000  
C 12.9860000   20.9080000   24.8660000  
O 13.6280000   20.6980000   25.8720000  
O 15.5840000   17.6300000   18.8800000  
O 13.3310000   18.7660000   17.9050000  
H 11.6760000   21.1880000   22.4420000  
H 11.5720000   21.5750000   23.9930000  
H 15.0610000   19.0400000   23.8560000  
H 16.1900000   17.0180000   19.4350000  
H 13.6950000   17.8890000   17.6960000  
C 16.3820000   17.9160000   21.6900000  
C 16.3170000   16.5100000   21.9270000  
C 17.4230000   15.9160000   22.4490000  
C 18.5290000   16.5750000   23.0160000  
C 18.5430000   17.9830000   22.7780000  
C 17.5130000   18.6480000   22.1140000  
C 15.3410000   15.5060000   21.6190000  
C 15.8990000   14.3500000   22.0870000  
N 17.1750000   14.5750000   22.6120000  
O 13.9570000   13.0430000   21.5560000  
C 15.2430000   13.0430000   22.0810000  
O 15.7570000   12.0310000   22.4890000  
O 19.5470000   18.6900000   23.3870000  
O 17.4950000   19.9780000   21.9800000  
H 14.3800000   15.6980000   21.1030000  
H 13.8580000   13.9920000   21.2850000  
H 17.8360000   13.8970000   22.9750000  
H 20.1870000   17.9660000   23.6320000  
H 18.4130000   20.2060000   22.3250000  
C 19.5180000   15.8560000   23.8470000  
C 20.6990000   15.2890000   23.3050000  
C 21.6520000   14.6860000   24.0260000  
C 21.6310000   14.6510000   25.4030000  
C 20.3960000   15.1000000   25.9510000  
C 19.4030000   15.7280000   25.2460000  
C 21.1860000   15.3450000   21.9720000  
C 22.4320000   14.7410000   21.9850000  
N 22.7140000   14.3700000   23.2910000  
O 23.0510000   15.0380000   19.7610000  
C 23.3900000   14.5910000   20.9150000  
O 24.4660000   14.1200000   21.0600000  
O 20.1000000   14.8430000   27.2770000  
O 18.2760000   16.1110000   25.9200000  
H 20.6910000   15.8020000   21.1130000  
H 22.2660000   15.5530000   19.9170000  
H 23.5160000   13.8840000   23.6280000  
H 19.1940000   15.1590000   27.4750000  
H 17.5380000   16.2850000   25.1680000  
H 22.4140000   14.2130000   25.9560000  
