76
001 
C 12.7950000   24.8220000   21.9050000  
C 13.2700000   25.4910000   23.0700000  
C 14.2200000   24.8720000   23.8830000  
C 14.7500000   23.6370000   23.6780000  
C 14.3950000   22.8910000   22.6220000  
C 13.2470000   23.3630000   21.7570000  
C 14.8730000   25.3380000   25.0430000  
C 15.8070000   24.3760000   25.4800000  
N 15.6700000   23.2910000   24.6030000  
O 16.6330000   25.6360000   27.2590000  
C 16.7440000   24.4500000   26.6300000  
O 17.6350000   23.5930000   26.9060000  
O 12.7870000   22.6400000   20.9590000  
O 12.0550000   25.4100000   21.1190000  
H 12.9020000   26.5160000   23.1200000  
H 14.7980000   26.3580000   25.4180000  
H 15.8600000   26.2200000   26.9050000  
H 16.1420000   22.3970000   24.7790000  
C 14.8020000   21.5050000   22.6640000  
C 14.1350000   20.3990000   23.3160000  
C 14.5480000   19.1310000   23.0990000  
C 15.5800000   18.6900000   22.2610000  
C 16.2910000   19.7620000   21.6280000  
C 15.9370000   21.1410000   21.9170000  
C 12.9610000   20.3190000   24.1720000  
C 12.9130000   19.0080000   24.6150000  
N 13.8100000   18.2150000   23.8190000  
O 11.2370000   19.3430000   26.3180000  
C 11.9800000   18.4470000   25.6400000  
O 12.0790000   17.3000000   26.0350000  
O 17.2560000   19.4880000   20.7890000  
O 16.5260000   22.0950000   21.1870000  
H 12.2850000   21.1580000   24.4670000  
H 11.5600000   20.2470000   26.0950000  
H 14.0550000   17.2410000   23.8850000  
H 17.4640000   18.6120000   20.9390000  
H 15.8920000   22.8020000   21.1160000  
C 15.8530000   17.3190000   22.0430000  
C 15.5800000   16.8350000   20.7570000  
C 15.9850000   15.5480000   20.4640000  
C 16.7410000   14.7200000   21.2650000  
C 17.0380000   15.1950000   22.5850000  
C 16.5260000   16.4780000   23.0070000  
C 15.0650000   17.3400000   19.5210000  
C 15.3020000   16.3680000   18.5240000  
N 15.6540000   15.1960000   19.1390000  
O 14.6450000   17.8130000   16.7440000  
C 15.1710000   16.6140000   17.0580000  
O 15.4320000   15.8140000   16.2010000  
O 17.7320000   14.3800000   23.4550000  
O 16.6920000   16.9700000   24.2290000  
H 14.5580000   18.3030000   19.3730000  
H 14.4190000   18.1310000   17.6160000  
H 15.8370000   14.3400000   18.6420000  
H 18.1130000   13.6530000   22.8540000  
H 17.5530000   16.5800000   24.6210000  
C 17.2120000   13.4320000   20.6950000  
C 18.0890000   13.4310000   19.5910000  
C 18.4240000   12.2640000   18.9550000  
C 17.8720000   11.0240000   19.3410000  
C 17.0140000   10.9990000   20.4610000  
C 16.6920000   12.1770000   21.1520000  
C 18.7240000   14.5170000   18.8130000  
C 19.3860000   13.9200000   17.6890000  
N 19.2000000   12.5150000   17.8380000  
O 20.3860000   15.8820000   16.9170000  
C 20.2050000   14.6270000   16.6140000  
O 20.7360000   14.1300000   15.6440000  
O 16.3380000    9.8550000   20.7970000  
O 15.7810000   12.1420000   22.1100000  
H 18.5760000   15.5740000   19.0480000  
H 20.1220000   15.9610000   17.7970000  
H 19.6900000   11.8780000   17.2300000  
H 16.2730000    9.8370000   21.7490000  
H 15.6820000   13.0840000   22.3060000  
H 18.0440000   10.2080000   18.6660000  
