76
001 
C  9.9720000   21.3220000   17.9170000  
C 10.1640000   22.7710000   18.1450000  
C 11.2160000   23.2260000   18.8660000  
C 12.0970000   22.3670000   19.4560000  
C 11.9370000   21.0030000   19.6010000  
C 10.7980000   20.3320000   18.9180000  
C 11.7710000   24.5140000   19.1530000  
C 12.8940000   24.4870000   19.9630000  
N 13.0610000   23.1300000   20.1150000  
O 13.1100000   26.8920000   20.2190000  
C 13.7230000   25.6580000   20.5110000  
O 14.7740000   25.5660000   21.1030000  
O 10.4990000   19.1520000   18.9340000  
O  9.1670000   20.8660000   17.0950000  
H  9.4650000   23.3800000   17.5530000  
H 11.4040000   25.4520000   18.8130000  
H 12.3050000   26.7400000   19.7350000  
H 13.6860000   22.7550000   20.7540000  
C 13.0310000   20.2140000   20.2320000  
C 13.2560000   20.2230000   21.6510000  
C 14.2620000   19.5130000   22.2110000  
C 15.1210000   18.6590000   21.4920000  
C 14.9800000   18.6490000   20.0950000  
C 13.9400000   19.4200000   19.4950000  
C 12.4030000   20.6390000   22.7770000  
C 12.9930000   20.1640000   23.9920000  
N 14.1150000   19.3920000   23.5980000  
O 11.2170000   20.9740000   25.3470000  
C 12.3840000   20.2250000   25.2930000  
O 12.8110000   19.7780000   26.2920000  
O 15.7760000   17.9560000   19.2440000  
O 13.8230000   19.2730000   18.1520000  
H 11.5260000   21.2810000   22.6450000  
H 11.0720000   21.4160000   24.5080000  
H 14.6250000   18.7260000   24.2160000  
H 16.5180000   17.4550000   19.7290000  
H 14.3920000   18.5920000   17.7750000  
C 16.2110000   17.8560000   22.1380000  
C 16.1790000   16.4460000   22.0980000  
C 17.2310000   15.7370000   22.5940000  
C 18.3570000   16.2610000   23.1460000  
C 18.4900000   17.6780000   23.1870000  
C 17.3670000   18.4470000   22.7100000  
C 15.2760000   15.4610000   21.4940000  
C 15.7880000   14.2100000   21.6740000  
N 17.0350000   14.3840000   22.3750000  
O 14.0650000   13.0570000   20.4740000  
C 15.2680000   12.9600000   21.1070000  
O 15.8330000   11.8780000   21.2150000  
O 19.6000000   18.3100000   23.7470000  
O 17.4770000   19.8190000   22.8860000  
H 14.3720000   15.6110000   20.9380000  
H 13.9720000   13.9660000   20.5120000  
H 17.6780000   13.6810000   22.6590000  
H 20.2760000   17.7470000   23.8360000  
H 18.3410000   20.0280000   23.1840000  
C 19.3460000   15.2710000   23.7360000  
C 20.5280000   15.0850000   23.0960000  
C 21.4090000   14.0660000   23.4520000  
C 21.2640000   13.2150000   24.5520000  
C 20.0810000   13.4450000   25.3120000  
C 19.1480000   14.4840000   24.9000000  
C 20.8620000   15.5410000   21.7740000  
C 22.0680000   14.9090000   21.5690000  
N 22.4250000   14.0110000   22.5370000  
O 22.6230000   16.0210000   19.4130000  
C 23.0070000   15.1630000   20.3770000  
O 24.0750000   14.6250000   20.1980000  
O 19.8630000   12.5830000   26.3610000  
O 17.9850000   14.6220000   25.6050000  
H 20.2840000   16.1710000   21.0720000  
H 21.7070000   16.2510000   19.5700000  
H 23.2980000   13.5810000   22.5650000  
H 18.9460000   12.6380000   26.6240000  
H 17.4270000   15.2790000   25.0320000  
H 21.9250000   12.4040000   24.6930000  
