76
001 
C 16.0580000   13.1510000   27.5190000  
C 15.6040000   14.0590000   28.5970000  
C 14.9430000   15.1860000   28.2630000  
C 14.6510000   15.6120000   26.9800000  
C 15.2640000   15.0120000   25.9170000  
C 15.8670000   13.6820000   26.0380000  
C 14.3940000   16.2480000   29.0350000  
C 14.0650000   17.3570000   28.3020000  
N 14.3420000   17.0060000   26.9760000  
O 13.7710000   18.7930000   30.1120000  
C 13.6020000   18.6790000   28.7710000  
O 13.1560000   19.5460000   28.0850000  
O 16.3280000   13.0600000   25.0610000  
O 16.6880000   12.1340000   27.7230000  
H 15.7010000   13.7510000   29.6690000  
H 14.4390000   16.3000000   30.1380000  
H 13.8060000   17.9200000   30.4850000  
H 14.2550000   17.6030000   26.1480000  
C 15.2490000   15.7800000   24.7180000  
C 16.4110000   16.3120000   24.1200000  
C 16.3730000   17.2690000   23.1570000  
C 15.2270000   17.5880000   22.3970000  
C 14.0770000   16.8140000   22.8040000  
C 14.0690000   15.9990000   23.9740000  
C 17.7880000   16.1570000   24.4270000  
C 18.5150000   17.0180000   23.6120000  
N 17.5880000   17.7570000   22.7970000  
O 20.5580000   16.6510000   24.6710000  
C 19.9540000   17.3470000   23.6870000  
O 20.5620000   18.0860000   22.9270000  
O 12.9140000   16.9680000   22.1090000  
O 12.8480000   15.4520000   24.3600000  
H 18.1650000   15.4510000   25.1570000  
H 19.8290000   16.1630000   25.1100000  
H 17.7450000   18.4610000   22.1070000  
H 12.9450000   17.7110000   21.4050000  
H 12.0960000   15.9710000   24.0850000  
C 15.2910000   18.4930000   21.2250000  
C 15.3960000   17.9940000   19.9550000  
C 15.6930000   18.7680000   18.8670000  
C 15.9880000   20.1720000   18.9890000  
C 15.9030000   20.7290000   20.3080000  
C 15.4270000   19.9170000   21.3990000  
C 15.3320000   16.6300000   19.4280000  
C 15.6070000   16.6920000   18.0550000  
N 15.7210000   18.0600000   17.7030000  
O 15.2030000   14.4020000   17.5330000  
C 15.5060000   15.6400000   17.0330000  
O 15.5520000   15.7540000   15.8220000  
O 16.3490000   21.9720000   20.5830000  
O 15.3130000   20.4930000   22.6150000  
H 15.2250000   15.7740000   19.9870000  
H 15.0780000   14.5650000   18.4680000  
H 15.7450000   18.4210000   16.7510000  
H 16.5180000   22.4150000   19.7400000  
H 15.5830000   21.4370000   22.4990000  
C 16.6950000   20.9930000   17.8820000  
C 15.9620000   21.6150000   16.8620000  
C 16.5890000   22.4390000   15.9580000  
C 17.9870000   22.4870000   15.7950000  
C 18.7350000   21.7700000   16.7380000  
C 18.1130000   21.0180000   17.7240000  
C 14.5590000   21.7830000   16.6660000  
C 14.4340000   22.6640000   15.5920000  
N 15.7030000   23.0210000   15.1130000  
O 12.0530000   22.6980000   15.6890000  
C 13.1740000   23.1440000   15.0250000  
O 13.0940000   23.9840000   14.1910000  
O 20.0260000   21.7050000   16.4750000  
O 18.8380000   20.2980000   18.5990000  
H 13.6910000   21.3940000   17.1740000  
H 12.3830000   22.2680000   16.4880000  
H 15.9700000   23.5360000   14.2730000  
H 20.3040000   21.0630000   17.1660000  
H 18.1610000   19.8030000   19.1820000  
H 18.5300000   22.9620000   14.9870000  
