76
001 
C 16.1270000   24.6120000   24.8760000  
C 16.1070000   24.5140000   26.4060000  
C 16.0680000   23.2360000   26.9810000  
C 15.8910000   22.0420000   26.2700000  
C 15.8480000   22.0090000   24.9020000  
C 15.8970000   23.2480000   24.1010000  
C 16.4400000   22.7920000   28.3160000  
C 16.4240000   21.3710000   28.3340000  
N 15.9920000   20.9480000   27.0520000  
O 17.4420000   21.1060000   30.5230000  
C 16.8170000   20.5120000   29.4830000  
O 16.5520000   19.3340000   29.4620000  
O 15.7430000   23.2260000   22.9150000  
O 16.4620000   25.5900000   24.1830000  
H 16.2630000   25.3460000   27.1060000  
H 16.8960000   23.4060000   29.0740000  
H 17.3800000   22.0840000   30.3870000  
H 16.0990000   19.9640000   26.6620000  
C 15.7770000   20.7420000   24.2570000  
C 14.6400000   20.0310000   24.0410000  
C 14.5720000   18.8700000   23.2850000  
C 15.5940000   18.4990000   22.4340000  
C 16.8160000   19.2340000   22.5520000  
C 16.8960000   20.3110000   23.5100000  
C 13.3010000   20.2130000   24.4500000  
C 12.4910000   19.2230000   23.8800000  
N 13.3100000   18.3260000   23.2010000  
O 10.3300000   20.0220000   24.5040000  
C 11.0450000   19.0620000   23.9720000  
O 10.5050000   18.1580000   23.3290000  
O 17.9160000   19.0400000   21.7570000  
O 18.0460000   21.0970000   23.4990000  
H 12.8420000   21.0250000   25.0180000  
H 10.9520000   20.6860000   24.8030000  
H 13.0530000   17.4100000   22.8490000  
H 17.7110000   18.3820000   21.1010000  
H 17.7270000   22.0040000   23.8590000  
C 15.4370000   17.4420000   21.4130000  
C 15.4390000   17.7750000   20.0560000  
C 15.4790000   16.7190000   19.1690000  
C 15.3250000   15.3600000   19.4710000  
C 15.1260000   14.9920000   20.8000000  
C 15.2420000   16.0650000   21.7850000  
C 15.6020000   19.0070000   19.2440000  
C 15.7490000   18.6460000   17.9270000  
N 15.6860000   17.2290000   17.8830000  
O 16.3780000   20.8130000   17.0230000  
C 16.1170000   19.4770000   16.7750000  
O 16.2810000   19.1140000   15.6440000  
O 15.0510000   13.6870000   21.1560000  
O 15.1140000   15.7340000   23.1260000  
H 15.6930000   20.0470000   19.5910000  
H 16.0800000   20.9480000   17.9410000  
H 15.6820000   16.6930000   17.0590000  
H 15.2040000   13.1620000   20.3820000  
H 14.9460000   14.8160000   23.3720000  
C 15.4510000   14.3160000   18.4050000  
C 16.7310000   14.1640000   17.7780000  
C 16.9040000   13.2410000   16.7610000  
C 15.8180000   12.5280000   16.2360000  
C 14.5770000   12.6630000   16.8170000  
C 14.3830000   13.5210000   17.9190000  
C 17.9950000   14.8160000   17.9410000  
C 18.9090000   14.2080000   17.0840000  
N 18.1670000   13.4100000   16.1770000  
O 20.7800000   15.4460000   17.8930000  
C 20.3230000   14.6120000   16.9530000  
O 21.0420000   14.1920000   16.0900000  
O 13.5740000   11.8500000   16.3430000  
O 13.1290000   13.7830000   18.4130000  
H 18.0980000   15.7160000   18.5260000  
H 20.1220000   15.4910000   18.6120000  
H 18.4520000   13.0760000   15.2940000  
H 12.7770000   12.1530000   16.6580000  
H 13.2410000   14.4910000   19.0780000  
H 16.0690000   11.8290000   15.3810000  
