76
001 
C 16.6360000   15.7790000   28.6670000  
C 15.6340000   16.4560000   29.4970000  
C 14.8080000   17.4150000   28.8930000  
C 14.9340000   17.7780000   27.5060000  
C 15.7350000   17.0990000   26.6350000  
C 16.7170000   16.0580000   27.1330000  
C 13.6580000   18.1430000   29.3720000  
C 13.1300000   18.8840000   28.3180000  
N 13.9200000   18.5670000   27.2000000  
O 11.1620000   19.5790000   29.4700000  
C 11.8250000   19.6110000   28.3010000  
O 11.3720000   20.1540000   27.3110000  
O 17.5240000   15.4260000   26.5160000  
O 17.3940000   15.0460000   29.2550000  
H 15.4810000   16.0690000   30.5510000  
H 13.1580000   17.9980000   30.3160000  
H 11.5870000   18.7880000   29.8640000  
H 13.7120000   18.7980000   26.2620000  
C 15.6540000   17.5220000   25.2270000  
C 16.3620000   18.6480000   24.7790000  
C 16.4020000   18.9760000   23.4820000  
C 15.8550000   18.2850000   22.3970000  
C 15.2340000   17.0900000   22.7690000  
C 15.1320000   16.7330000   24.1540000  
C 17.2530000   19.5720000   25.4410000  
C 17.7490000   20.4960000   24.5540000  
N 17.1670000   20.1120000   23.2910000  
O 19.0890000   21.9320000   26.0190000  
C 18.5910000   21.7300000   24.7970000  
O 18.9050000   22.4970000   23.9360000  
O 14.7010000   16.2390000   21.7910000  
O 14.3830000   15.6530000   24.5700000  
H 17.4330000   19.6120000   26.5390000  
H 18.6850000   21.1670000   26.4830000  
H 17.1840000   20.6010000   22.4130000  
H 15.2120000   16.5220000   21.0090000  
H 14.0800000   15.1070000   23.8040000  
C 16.0230000   18.6710000   20.9660000  
C 16.9850000   17.9360000   20.1640000  
C 17.0510000   18.2020000   18.8130000  
C 16.1810000   19.0130000   18.0750000  
C 15.1820000   19.6410000   18.8690000  
C 15.0700000   19.4040000   20.2310000  
C 18.0420000   16.8960000   20.4270000  
C 18.6090000   16.4940000   19.1990000  
N 17.9110000   17.2450000   18.2520000  
O 20.3090000   15.1520000   20.2920000  
C 19.7340000   15.5630000   19.1300000  
O 20.1970000   15.2500000   18.0380000  
O 14.3000000   20.5620000   18.3630000  
O 13.9050000   19.8120000   20.8370000  
H 18.4690000   16.6100000   21.3930000  
H 19.9420000   15.6750000   21.0000000  
H 17.8120000   16.8740000   17.2990000  
H 14.3850000   20.6650000   17.3820000  
H 13.3660000   20.2350000   20.1230000  
C 16.1810000   19.1590000   16.5950000  
C 15.0460000   18.7290000   15.8350000  
C 15.0720000   18.7590000   14.4860000  
C 16.2250000   19.1040000   13.7390000  
C 17.3620000   19.6090000   14.4490000  
C 17.2940000   19.6330000   15.8960000  
C 13.7860000   18.1060000   16.2760000  
C 13.1070000   17.7580000   15.1200000  
N 13.8570000   18.2810000   14.0470000  
O 11.3520000   16.6690000   16.2900000  
C 11.8770000   16.9900000   15.0430000  
O 11.3040000   16.7940000   14.0360000  
O 18.4070000   20.0590000   13.8020000  
O 18.3480000   20.1720000   16.5960000  
H 13.5940000   17.7910000   17.2650000  
H 11.9110000   17.0750000   16.8940000  
H 13.6280000   18.0650000   13.0550000  
H 19.1740000   20.0880000   14.4140000  
H 18.0560000   20.5040000   17.4350000  
H 16.3040000   18.9970000   12.6380000  
