76
001 
C 12.1280000   25.1760000   20.9850000  
C 12.6000000   25.7790000   22.2290000  
C 13.4090000   25.0850000   23.0820000  
C 13.7810000   23.7640000   22.8420000  
C 13.4470000   23.0800000   21.6650000  
C 12.8220000   23.8080000   20.5510000  
C 13.8650000   25.3470000   24.4280000  
C 14.5260000   24.2110000   24.9660000  
N 14.4090000   23.2120000   23.9830000  
O 15.2070000   25.0390000   27.0310000  
C 15.2260000   24.0100000   26.2180000  
O 15.7660000   22.9670000   26.5890000  
O 12.6760000   23.5130000   19.4000000  
O 11.4060000   25.7260000   20.2050000  
H 12.2260000   26.7970000   22.4050000  
H 13.7760000   26.2610000   24.9710000  
H 14.8470000   25.7750000   26.5250000  
H 14.8450000   22.3140000   23.9950000  
C 14.0970000   21.7770000   21.3750000  
C 13.7910000   20.6240000   22.1120000  
C 14.4510000   19.4810000   21.9960000  
C 15.5240000   19.2270000   21.0890000  
C 15.8320000   20.3530000   20.2050000  
C 15.1400000   21.5680000   20.4040000  
C 12.8690000   20.4960000   23.2250000  
C 13.0880000   19.2520000   23.7700000  
N 13.9850000   18.5950000   22.9200000  
O 11.4880000   19.3470000   25.5570000  
C 12.4270000   18.5700000   24.9150000  
O 12.7530000   17.4310000   25.2830000  
O 16.7960000   20.2160000   19.2670000  
O 15.6700000   22.6070000   19.6630000  
H 12.2560000   21.3050000   23.5660000  
H 11.1660000   20.0090000   24.9080000  
H 14.4710000   17.8090000   23.2760000  
H 17.4240000   19.5140000   19.5540000  
H 15.0980000   23.3770000   19.7000000  
C 16.3130000   17.9210000   21.1040000  
C 15.6630000   16.6240000   21.0100000  
C 16.3670000   15.4490000   21.1590000  
C 17.6960000   15.3680000   21.4010000  
C 18.4340000   16.5610000   21.3480000  
C 17.7590000   17.7950000   21.1590000  
C 14.2720000   16.2460000   20.7670000  
C 14.1960000   14.8640000   20.7920000  
N 15.5400000   14.4030000   21.0030000  
O 11.8700000   14.7630000   20.3850000  
C 13.0100000   14.0030000   20.5480000  
O 12.9850000   12.7840000   20.7140000  
O 19.7940000   16.4800000   21.3970000  
O 18.4470000   18.9460000   21.2290000  
H 13.4800000   16.9160000   20.5390000  
H 12.2010000   15.7020000   20.4200000  
H 15.7970000   13.4360000   20.8440000  
H 19.9160000   15.5620000   21.2570000  
H 19.2310000   18.7400000   21.7130000  
C 18.4270000   14.0630000   21.4590000  
C 19.1740000   13.5260000   20.3300000  
C 19.7460000   12.3130000   20.5060000  
C 19.7710000   11.6580000   21.7460000  
C 19.0680000   12.1990000   22.8840000  
C 18.3680000   13.3790000   22.6790000  
C 19.3210000   13.9260000   18.9130000  
C 19.9800000   12.8710000   18.2920000  
N 20.3820000   12.0310000   19.2860000  
O 20.2520000   13.8690000   16.1050000  
C 20.5320000   12.8260000   16.9540000  
O 21.2610000   11.9250000   16.5440000  
O 19.0140000   11.5140000   24.0780000  
O 17.6630000   13.9980000   23.6890000  
H 19.0850000   14.8560000   18.4160000  
H 19.4850000   14.2660000   16.3880000  
H 21.0620000   11.3330000   19.2970000  
H 18.5560000   12.1100000   24.7300000  
H 17.2260000   14.7590000   23.2960000  
H 20.3720000   10.7580000   21.9400000  
