76
001 
C 16.2550000   25.0660000   25.4000000  
C 15.1410000   24.7390000   26.3540000  
C 14.4790000   23.5640000   26.3790000  
C 14.7160000   22.6010000   25.3440000  
C 15.5120000   22.8190000   24.2630000  
C 16.4100000   24.0200000   24.2710000  
C 13.7070000   22.9370000   27.3610000  
C 13.3860000   21.6390000   26.9600000  
N 14.0670000   21.4640000   25.7350000  
O 12.1150000   20.8610000   28.8980000  
C 12.6080000   20.5760000   27.6760000  
O 12.3790000   19.5030000   27.1360000  
O 17.1730000   24.1920000   23.3920000  
O 17.0270000   25.9880000   25.6570000  
H 15.1270000   25.3760000   27.2200000  
H 13.4750000   23.4190000   28.3600000  
H 12.3040000   21.7860000   29.1100000  
H 14.0040000   20.6280000   25.2060000  
C 15.7080000   21.6830000   23.3460000  
C 14.6050000   21.1530000   22.6570000  
C 14.6780000   19.8910000   22.0410000  
C 15.8600000   19.1600000   21.8300000  
C 16.9370000   19.6690000   22.5430000  
C 16.8280000   20.8490000   23.3900000  
C 13.1730000   21.4870000   22.6300000  
C 12.4830000   20.4360000   21.9630000  
N 13.4260000   19.4410000   21.6520000  
O 10.2490000   21.5270000   22.0450000  
C 11.0250000   20.4350000   21.6640000  
O 10.4780000   19.4620000   21.1620000  
O 18.0830000   18.9230000   22.6830000  
O 17.8110000   21.1850000   24.2400000  
H 12.7290000   22.3860000   22.9810000  
H 10.9370000   22.0800000   22.4710000  
H 13.1150000   18.6150000   21.2710000  
H 18.1530000   18.3070000   21.9750000  
H 18.6180000   20.5960000   24.1030000  
C 15.9450000   17.8210000   21.1480000  
C 16.4520000   17.7650000   19.7980000  
C 16.5140000   16.5070000   19.1760000  
C 16.0840000   15.3050000   19.7530000  
C 15.3990000   15.4040000   20.9910000  
C 15.4630000   16.6350000   21.7380000  
C 16.8600000   18.7790000   18.8410000  
C 17.2230000   18.0650000   17.7230000  
N 17.1330000   16.6720000   17.9680000  
O 17.7910000   19.9860000   16.4410000  
C 17.7800000   18.6690000   16.4620000  
O 18.1310000   18.0470000   15.4730000  
O 14.7530000   14.3030000   21.5430000  
O 14.9420000   16.6370000   22.9710000  
H 16.9550000   19.8800000   19.0870000  
H 17.1500000   20.1370000   17.1250000  
H 17.4310000   15.8750000   17.4330000  
H 14.9080000   13.4220000   21.1060000  
H 14.4180000   15.8380000   23.0840000  
C 16.3050000   13.9900000   19.0270000  
C 17.5520000   13.3700000   19.1010000  
C 17.7310000   12.1730000   18.5170000  
C 16.6960000   11.5280000   17.8150000  
C 15.5090000   12.2340000   17.5630000  
C 15.2730000   13.4530000   18.1880000  
C 18.8380000   13.6490000   19.7550000  
C 19.5900000   12.4870000   19.7490000  
N 18.9310000   11.5730000   18.9070000  
O 21.2720000   13.2160000   21.3180000  
C 20.8750000   12.2600000   20.4730000  
O 21.4870000   11.2640000   20.3250000  
O 14.6080000   11.7260000   16.6970000  
O 14.1270000   14.1800000   17.9440000  
H 19.0580000   14.5410000   20.2930000  
H 20.5950000   13.8760000   21.2930000  
H 19.3060000   10.6910000   18.5300000  
H 14.0050000   12.4660000   16.4450000  
H 14.2530000   15.0940000   18.3020000  
H 16.8430000   10.4900000   17.4400000  
