76
001 
C 13.6200000   24.5320000   25.5530000  
C 14.1060000   24.0630000   26.8890000  
C 15.1330000   23.1740000   26.9370000  
C 15.5990000   22.4880000   25.8500000  
C 15.1880000   22.6910000   24.5550000  
C 14.1800000   23.7250000   24.2470000  
C 15.7570000   22.6220000   28.0540000  
C 16.6170000   21.6260000   27.5980000  
N 16.4690000   21.5620000   26.2870000  
O 17.3580000   21.0330000   29.7380000  
C 17.5670000   20.8760000   28.4490000  
O 18.3770000   20.0610000   28.1130000  
O 13.8050000   24.0380000   23.1110000  
O 12.9160000   25.5100000   25.4310000  
H 13.6730000   24.6420000   27.6910000  
H 15.6570000   22.9180000   29.1070000  
H 16.5180000   21.4670000   29.7050000  
H 16.8190000   20.8740000   25.6880000  
C 15.4840000   21.5460000   23.6830000  
C 14.4720000   20.5920000   23.4850000  
C 14.7470000   19.4670000   22.7620000  
C 15.9790000   19.2020000   22.1350000  
C 17.0010000   20.1850000   22.2880000  
C 16.7290000   21.2780000   23.1300000  
C 13.0660000   20.4900000   23.8370000  
C 12.5510000   19.3370000   23.3030000  
N 13.6400000   18.6650000   22.6440000  
O 10.3900000   19.8280000   24.0120000  
C 11.1000000   18.9190000   23.4030000  
O 10.5640000   17.8500000   23.0930000  
O 18.2550000   19.9770000   21.7310000  
O 17.7160000   22.1960000   23.2350000  
H 12.6550000   21.3850000   24.3090000  
H 10.9700000   20.5850000   24.1290000  
H 13.4910000   17.9680000   21.9160000  
H 18.1410000   19.1210000   21.1170000  
H 17.4920000   22.7180000   24.0660000  
C 16.1830000   17.9600000   21.3550000  
C 16.2160000   18.0040000   19.9190000  
C 16.1180000   16.8210000   19.1860000  
C 16.1850000   15.5110000   19.7590000  
C 16.2670000   15.4670000   21.1540000  
C 16.2340000   16.7070000   21.9330000  
C 16.1500000   19.0550000   18.9010000  
C 16.0640000   18.3930000   17.6540000  
N 16.1510000   17.0450000   17.8320000  
O 15.9390000   20.3570000   16.2680000  
C 15.9490000   19.0270000   16.3370000  
O 15.8760000   18.2800000   15.3010000  
O 16.4580000   14.2550000   21.8260000  
O 16.2050000   16.6530000   23.2830000  
H 15.9200000   20.1380000   19.0010000  
H 16.0810000   20.5460000   17.1900000  
H 16.1870000   16.3940000   17.0500000  
H 16.5270000   13.5900000   21.0570000  
H 16.2430000   15.6960000   23.5820000  
C 16.0130000   14.2440000   18.9970000  
C 17.0300000   13.7310000   18.1810000  
C 16.8990000   12.4830000   17.5520000  
C 15.8280000   11.5860000   17.7530000  
C 14.8180000   12.0870000   18.5520000  
C 14.9250000   13.3610000   19.1580000  
C 18.3080000   14.1690000   17.7660000  
C 18.9150000   13.1620000   17.0800000  
N 17.9470000   12.2480000   16.7490000  
O 21.0510000   14.2010000   16.9660000  
C 20.2970000   13.0950000   16.6910000  
O 20.7590000   12.1680000   15.9740000  
O 13.7840000   11.2430000   18.8120000  
O 13.9320000   13.8140000   19.9770000  
H 18.8030000   15.0640000   18.0910000  
H 20.5280000   14.8350000   17.3520000  
H 18.0660000   11.5080000   16.0960000  
H 12.9870000   11.7760000   19.2430000  
H 14.1380000   14.7920000   20.1530000  
H 15.7390000   10.5700000   17.2680000  
