76
001 
C 10.5250000   23.6410000   20.3430000  
C 10.9330000   24.6770000   21.2610000  
C 12.1750000   24.6830000   21.8790000  
C 13.0850000   23.6020000   21.8130000  
C 12.7990000   22.4530000   21.0900000  
C 11.5650000   22.3440000   20.2060000  
C 12.7830000   25.6910000   22.6930000  
C 14.1340000   25.2820000   22.9420000  
N 14.2630000   24.0140000   22.4080000  
O 14.8660000   27.1900000   24.1570000  
C 15.2260000   26.0050000   23.6290000  
O 16.3730000   25.6290000   23.6990000  
O 11.3440000   21.4060000   19.4700000  
O  9.5430000   23.6690000   19.6710000  
H 10.2600000   25.5030000   21.2210000  
H 12.3060000   26.6140000   22.9880000  
H 13.8940000   27.1040000   24.1740000  
H 15.1220000   23.4040000   22.4440000  
C 13.8460000   21.3710000   21.1460000  
C 13.3340000   20.1480000   21.7160000  
C 14.1290000   19.0830000   21.7960000  
C 15.5100000   19.0280000   21.4640000  
C 16.0460000   20.2160000   20.7970000  
C 15.2320000   21.3680000   20.7220000  
C 12.1210000   19.8080000   22.4530000  
C 12.1790000   18.4910000   22.8590000  
N 13.4850000   18.0750000   22.4860000  
O 10.0260000   18.3270000   23.9750000  
C 11.2080000   17.7030000   23.5970000  
O 11.3440000   16.5390000   23.8340000  
O 17.3420000   20.1770000   20.2540000  
O 15.7660000   22.4870000   20.1170000  
H 11.2440000   20.4370000   22.6620000  
H  9.9870000   19.1970000   23.4920000  
H 13.8960000   17.1830000   22.6180000  
H 17.6610000   19.2690000   20.1710000  
H 16.4740000   22.2320000   19.4660000  
C 16.3340000   17.8440000   21.7270000  
C 16.2210000   16.7490000   20.8170000  
C 16.9000000   15.6080000   21.0700000  
C 17.7190000   15.3560000   22.1260000  
C 17.9100000   16.5150000   23.0450000  
C 17.2250000   17.7400000   22.7940000  
C 15.4810000   16.3890000   19.5780000  
C 15.7610000   15.0590000   19.2460000  
N 16.6960000   14.6240000   20.1220000  
O 14.0830000   14.8570000   17.5230000  
C 15.1620000   14.2750000   18.1610000  
O 15.4040000   13.1150000   18.0240000  
O 18.7050000   16.3330000   24.1710000  
O 17.4130000   18.7770000   23.6350000  
H 14.8740000   16.9910000   18.9020000  
H 14.1150000   15.7930000   17.8610000  
H 17.0910000   13.7070000   20.0880000  
H 19.0280000   15.3030000   24.1910000  
H 17.8970000   18.3530000   24.3160000  
C 18.3130000   14.0030000   22.4040000  
C 19.6310000   13.7750000   21.9550000  
C 20.2820000   12.5780000   22.1540000  
C 19.6770000   11.5440000   22.8340000  
C 18.4340000   11.7610000   23.4140000  
C 17.6820000   13.0230000   23.1520000  
C 20.5440000   14.5420000   21.2000000  
C 21.7100000   13.8720000   21.0500000  
N 21.5840000   12.5700000   21.6390000  
O 22.9120000   15.8230000   20.2880000  
C 22.9870000   14.5200000   20.6460000  
O 23.9820000   13.9060000   20.5720000  
O 17.8800000   10.7130000   24.1510000  
O 16.3630000   13.2140000   23.5510000  
H 20.3100000   15.5030000   20.7230000  
H 22.0150000   16.0720000   20.4120000  
H 22.3280000   11.8220000   21.7230000  
H 16.8850000   10.8820000   24.2500000  
H 16.1020000   14.0110000   23.1360000  
H 20.1370000   10.5530000   23.0720000  
