76
001 
C  9.9020000   21.7770000   19.2550000  
C 10.0290000   23.2060000   19.5260000  
C 11.1330000   23.7070000   20.1260000  
C 12.2560000   22.9100000   20.3570000  
C 12.3310000   21.5600000   20.1170000  
C 11.1400000   20.8710000   19.6400000  
C 11.5330000   25.0060000   20.5530000  
C 12.8230000   25.0320000   21.0490000  
N 13.2010000   23.7330000   20.8750000  
O 13.1090000   27.3610000   21.1590000  
C 13.7140000   26.1740000   21.3400000  
O 14.9520000   26.0360000   21.5540000  
O 11.1010000   19.6560000   19.5530000  
O  8.9490000   21.2600000   18.6950000  
H  9.1580000   23.8100000   19.2560000  
H 10.8990000   25.8420000   20.3450000  
H 12.1160000   27.0680000   21.1520000  
H 14.0890000   23.3380000   21.0110000  
C 13.5940000   20.8290000   20.4180000  
C 13.8730000   20.4300000   21.7290000  
C 14.9050000   19.5890000   21.9920000  
C 15.7480000   19.1120000   21.0010000  
C 15.4650000   19.4430000   19.6520000  
C 14.4580000   20.3560000   19.3560000  
C 13.1670000   20.7480000   23.0160000  
C 13.9230000   20.0860000   24.0000000  
N 14.9290000   19.3640000   23.3630000  
O 12.4460000   20.5370000   25.8440000  
C 13.5940000   19.9290000   25.4470000  
O 14.1940000   19.2040000   26.1990000  
O 16.2880000   19.0530000   18.6810000  
O 14.1430000   20.6060000   18.0220000  
H 12.2810000   21.3980000   23.2180000  
H 12.1130000   20.9930000   25.0790000  
H 15.5810000   18.8080000   23.8680000  
H 17.0080000   18.8310000   19.2450000  
H 13.3860000   21.1290000   18.0910000  
C 16.7660000   18.1260000   21.4000000  
C 16.4160000   16.8270000   21.6870000  
C 17.3270000   15.9970000   22.3080000  
C 18.7100000   16.2310000   22.4080000  
C 19.1160000   17.5340000   22.0480000  
C 18.1240000   18.4650000   21.5160000  
C 15.1200000   16.1770000   21.7990000  
C 15.3370000   14.9160000   22.3240000  
N 16.7150000   14.8180000   22.6220000  
O 13.1880000   14.2420000   22.4830000  
C 14.4610000   13.7410000   22.5020000  
O 14.8370000   12.6180000   22.8290000  
O 20.4140000   18.0120000   22.1580000  
O 18.6110000   19.7350000   21.2210000  
H 14.1610000   16.5590000   21.5140000  
H 13.2970000   15.2420000   22.3620000  
H 17.1910000   13.9280000   22.9700000  
H 20.9270000   17.2740000   22.4950000  
H 19.5730000   19.7040000   21.3500000  
C 19.7560000   15.1720000   22.7550000  
C 19.8010000   13.9000000   22.1860000  
C 20.6720000   12.9190000   22.6370000  
C 21.4050000   13.0530000   23.7620000  
C 21.4670000   14.3620000   24.3700000  
C 20.5830000   15.3670000   23.9090000  
C 19.0250000   13.4010000   21.0950000  
C 19.5470000   12.1650000   20.8360000  
N 20.5820000   11.8540000   21.7980000  
O 18.2890000   11.9110000   18.7950000  
C 19.0280000   11.3200000   19.7020000  
O 19.2460000   10.1520000   19.6720000  
O 22.3200000   14.6110000   25.4170000  
O 20.5840000   16.5660000   24.5400000  
H 18.2950000   13.9260000   20.4990000  
H 18.3990000   12.8310000   19.0760000  
H 21.2900000   11.1460000   21.7060000  
H 22.1260000   15.5180000   25.7370000  
H 19.6330000   16.8310000   24.6090000  
H 21.9390000   12.2430000   24.1510000  
