76
001 
C  9.6380000   13.8520000   20.2450000  
C 10.1190000   13.4190000   18.9300000  
C 11.2660000   13.9360000   18.3290000  
C 12.0480000   14.8320000   18.9900000  
C 11.8170000   15.3300000   20.2340000  
C 10.5550000   14.9280000   20.9960000  
C 11.9590000   13.5620000   17.1710000  
C 13.0870000   14.3500000   17.0040000  
N 13.0910000   15.1710000   18.1950000  
O 13.7240000   13.5650000   14.8300000  
C 14.0810000   14.3330000   15.9130000  
O 15.1910000   14.9390000   15.8980000  
O 10.2850000   15.1860000   22.1490000  
O  8.6500000   13.4260000   20.8520000  
H  9.5150000   12.6260000   18.5410000  
H 11.6150000   12.7520000   16.5550000  
H 12.9200000   13.0810000   15.0840000  
H 13.7260000   15.8730000   18.3490000  
C 12.8230000   16.2110000   20.7660000  
C 12.8040000   17.5360000   20.4950000  
C 13.8480000   18.3220000   20.9740000  
C 14.9280000   17.8790000   21.7740000  
C 14.8100000   16.4800000   22.1120000  
C 13.7930000   15.6250000   21.5710000  
C 11.8470000   18.3520000   19.7860000  
C 12.3220000   19.6660000   19.8830000  
N 13.6000000   19.6300000   20.5330000  
O 10.5670000   20.5990000   18.6450000  
C 11.7880000   20.8230000   19.1920000  
O 12.4160000   21.8250000   19.1300000  
O 15.8790000   16.0010000   22.8010000  
O 13.8610000   14.2660000   21.7120000  
H 10.9940000   18.0210000   19.2370000  
H 10.2480000   19.7720000   19.0700000  
H 14.2270000   20.4440000   20.5870000  
H 16.3000000   16.8860000   23.1440000  
H 12.9750000   13.9280000   21.4130000  
C 16.0050000   18.8170000   22.1720000  
C 16.2920000   18.9830000   23.5640000  
C 17.2430000   19.8250000   23.9940000  
C 18.0770000   20.5580000   23.1060000  
C 17.8540000   20.3450000   21.7100000  
C 16.7590000   19.5530000   21.2580000  
C 15.7010000   18.3710000   24.7660000  
C 16.5810000   18.7820000   25.7860000  
N 17.4480000   19.7910000   25.3120000  
O 15.4490000   17.5070000   27.5120000  
C 16.5480000   18.2260000   27.1740000  
O 17.3390000   18.4780000   27.9930000  
O 18.6540000   20.9960000   20.8170000  
O 16.6650000   19.4130000   19.8580000  
H 14.7970000   17.7810000   24.9140000  
H 14.7890000   17.5130000   26.8070000  
H 18.2290000   20.1600000   25.8020000  
H 19.5860000   21.0260000   20.9530000  
H 16.7530000   20.2510000   19.4060000  
C 19.1940000   21.4120000   23.5220000  
C 20.5020000   20.9170000   23.5180000  
C 21.6380000   21.6970000   23.8520000  
C 21.4590000   23.0330000   24.2860000  
C 20.1280000   23.5960000   24.1800000  
C 19.0330000   22.7900000   23.8390000  
C 20.9760000   19.6080000   23.2510000  
C 22.3970000   19.6900000   23.3670000  
N 22.7900000   20.9460000   23.7540000  
O 22.8090000   17.6050000   22.2080000  
C 23.3190000   18.6530000   22.8530000  
O 24.5070000   18.9390000   22.9080000  
O 19.9630000   24.9120000   24.5570000  
O 17.7970000   23.2930000   24.0130000  
H 20.4890000   18.7240000   22.9460000  
H 21.8710000   17.7140000   22.2900000  
H 23.7450000   21.2150000   23.8490000  
H 19.0270000   25.0700000   24.6400000  
H 17.1590000   22.6270000   23.7340000  
H 22.2950000   23.6750000   24.5810000  
