76
001 
C 17.2080000   19.4040000   29.0770000  
C 16.0130000   20.1910000   29.4140000  
C 14.9090000   20.2430000   28.6010000  
C 14.8150000   19.6080000   27.3910000  
C 15.8940000   18.9190000   26.8440000  
C 17.1540000   18.7710000   27.6550000  
C 13.6820000   20.9720000   28.8050000  
C 12.9680000   20.8890000   27.6570000  
N 13.5830000   19.9180000   26.7890000  
O 11.2090000   22.3420000   28.1760000  
C 11.6660000   21.4690000   27.2970000  
O 11.0530000   21.1380000   26.3160000  
O 18.1540000   18.2040000   27.2100000  
O 18.1920000   19.3900000   29.8370000  
H 16.1090000   20.8350000   30.2430000  
H 13.4250000   21.6370000   29.6630000  
H 11.8030000   22.5000000   28.9050000  
H 13.2820000   19.6390000   25.8800000  
C 15.7900000   18.3980000   25.4900000  
C 15.9480000   19.2870000   24.4390000  
C 16.0730000   18.9690000   23.1540000  
C 15.9020000   17.6730000   22.6970000  
C 15.6830000   16.7220000   23.7480000  
C 15.7740000   17.0390000   25.0850000  
C 16.1690000   20.7340000   24.5150000  
C 16.2780000   21.1880000   23.1940000  
N 16.0800000   20.1230000   22.3100000  
O 16.6250000   23.5480000   23.6350000  
C 16.5020000   22.5710000   22.6750000  
O 16.7110000   22.8310000   21.5320000  
O 15.5280000   15.4100000   23.3810000  
O 15.8650000   16.0660000   26.0300000  
H 16.1990000   21.3800000   25.3710000  
H 16.6390000   23.0580000   24.4930000  
H 16.1270000   20.2620000   21.2960000  
H 15.2560000   15.4380000   22.4280000  
H 15.5490000   15.2440000   25.7010000  
C 15.8460000   17.4020000   21.2080000  
C 16.9030000   17.8910000   20.3660000  
C 16.8330000   17.6780000   19.0360000  
C 15.6940000   17.2150000   18.3570000  
C 14.5940000   16.7560000   19.1500000  
C 14.7730000   16.7360000   20.5770000  
C 18.1910000   18.4670000   20.6700000  
C 18.8900000   18.5980000   19.4290000  
N 18.0040000   18.1770000   18.4390000  
O 20.7580000   19.6800000   20.3500000  
C 20.2400000   19.1360000   19.2050000  
O 20.7830000   19.0660000   18.0760000  
O 13.4560000   16.3300000   18.5220000  
O 13.7070000   16.2910000   21.3010000  
H 18.5180000   18.8220000   21.6000000  
H 20.0140000   19.6760000   21.0460000  
H 18.2490000   17.9500000   17.5090000  
H 13.7380000   16.2960000   17.6820000  
H 12.9990000   16.1150000   20.6660000  
C 15.6790000   17.0910000   16.8790000  
C 15.5140000   15.8830000   16.1870000  
C 15.5960000   15.8340000   14.8310000  
C 15.6580000   16.9610000   14.0040000  
C 15.7220000   18.1680000   14.6860000  
C 15.8030000   18.2410000   16.0690000  
C 15.2540000   14.5620000   16.7700000  
C 15.1390000   13.7140000   15.6730000  
N 15.3390000   14.5140000   14.5390000  
O 14.9560000   11.7780000   16.9350000  
C 14.7660000   12.2920000   15.7020000  
O 14.3860000   11.5800000   14.7780000  
O 15.8070000   19.3910000   14.0260000  
O 15.9060000   19.5040000   16.6410000  
H 15.2650000   14.3040000   17.8710000  
H 15.2710000   12.5460000   17.5500000  
H 15.1130000   14.1930000   13.5780000  
H 15.9630000   20.1420000   14.6230000  
H 16.1680000   19.3060000   17.5300000  
H 15.6430000   16.9480000   12.9250000  
