76
001 
C 18.5910000   15.4740000   28.4050000  
C 17.3100000   15.2420000   29.1260000  
C 16.1230000   15.5070000   28.4640000  
C 16.0480000   16.1840000   27.2320000  
C 17.1630000   16.5870000   26.5200000  
C 18.5110000   16.2040000   26.9840000  
C 14.7860000   15.3570000   28.9740000  
C 13.8920000   15.9050000   28.0170000  
N 14.6960000   16.3480000   26.9230000  
O 11.8460000   15.3460000   29.0940000  
C 12.3940000   15.9820000   28.0730000  
O 11.7150000   16.5290000   27.1910000  
O 19.5360000   16.5350000   26.3600000  
O 19.6470000   15.1690000   28.9040000  
H 17.3720000   14.7200000   30.1230000  
H 14.5310000   14.8920000   29.8940000  
H 12.6100000   15.0410000   29.6750000  
H 14.3650000   16.8260000   26.0810000  
C 16.8910000   16.9820000   25.0820000  
C 16.3990000   18.2520000   24.9660000  
C 16.0870000   18.7620000   23.6890000  
C 16.3400000   18.1170000   22.4810000  
C 16.9420000   16.8610000   22.6150000  
C 17.2130000   16.2900000   23.9160000  
C 16.1870000   19.3450000   25.9330000  
C 15.7540000   20.4200000   25.1450000  
N 15.6770000   20.0730000   23.8000000  
O 15.4720000   21.7610000   27.0600000  
C 15.2300000   21.7380000   25.7460000  
O 14.6790000   22.6750000   25.1810000  
O 17.1360000   16.0550000   21.5610000  
O 17.7620000   15.0480000   24.0020000  
H 16.2070000   19.2350000   27.0220000  
H 16.1380000   21.0860000   27.2390000  
H 15.3880000   20.5940000   23.0390000  
H 16.8500000   16.4370000   20.7340000  
H 17.7560000   14.6770000   23.1300000  
C 15.8450000   18.6300000   21.1040000  
C 16.7360000   18.8970000   19.9920000  
C 16.2710000   19.2720000   18.7700000  
C 14.8710000   19.5830000   18.5090000  
C 14.0030000   19.4670000   19.6360000  
C 14.4730000   19.0170000   20.8740000  
C 18.1520000   18.7740000   19.8330000  
C 18.4460000   18.9320000   18.4020000  
N 17.2510000   19.2760000   17.7600000  
O 20.8060000   18.6500000   18.5660000  
C 19.7870000   19.0060000   17.7930000  
O 19.8720000   19.2220000   16.6180000  
O 12.6940000   19.6430000   19.4910000  
O 13.5380000   18.7910000   21.7560000  
H 18.7560000   18.7420000   20.6800000  
H 20.4580000   18.3430000   19.3610000  
H 17.0830000   19.5310000   16.8120000  
H 12.5330000   19.4790000   18.5830000  
H 12.6710000   18.7920000   21.2190000  
C 14.3910000   19.9960000   17.1940000  
C 14.6370000   19.1690000   16.0960000  
C 14.3260000   19.5640000   14.8010000  
C 13.5440000   20.6840000   14.5570000  
C 13.3770000   21.5680000   15.6070000  
C 13.7900000   21.2940000   16.9470000  
C 15.3560000   17.9370000   15.9050000  
C 15.2760000   17.5680000   14.6370000  
N 14.7270000   18.5900000   13.8300000  
O 16.1400000   15.3900000   14.8780000  
C 15.8000000   16.3450000   14.0170000  
O 15.8390000   16.1490000   12.8140000  
O 12.6180000   22.6760000   15.3770000  
O 13.4650000   22.1340000   18.0080000  
H 15.8150000   17.3950000   16.6410000  
H 16.0940000   15.7710000   15.7650000  
H 14.5020000   18.5820000   12.8300000  
H 12.7700000   23.3530000   16.1040000  
H 13.8350000   21.6890000   18.7890000  
H 13.0610000   20.8520000   13.5680000  
