76
001 
C  8.8810000   16.2330000   19.5930000  
C  9.0020000   14.7630000   19.2830000  
C 10.2550000   14.2030000   19.2710000  
C 11.4000000   14.8370000   19.6590000  
C 11.4540000   16.1640000   19.9370000  
C 10.2440000   16.9070000   20.0790000  
C 10.6370000   12.8660000   19.0270000  
C 12.0160000   12.6860000   19.2520000  
N 12.4480000   13.9600000   19.6840000  
O 12.1870000   10.3990000   18.5510000  
C 12.8470000   11.5070000   18.9540000  
O 14.0380000   11.5770000   19.0370000  
O 10.1690000   17.9750000   20.5820000  
O  7.8750000   16.8670000   19.4900000  
H  8.0970000   14.2470000   19.0180000  
H  9.9460000   12.0710000   18.7530000  
H 11.2450000   10.5860000   18.6120000  
H 13.3940000   14.0890000   19.9890000  
C 12.7910000   16.6840000   20.3310000  
C 13.2580000   17.7980000   19.5870000  
C 14.4430000   18.3770000   20.0130000  
C 15.2330000   17.9360000   21.0990000  
C 14.6720000   16.9630000   21.9570000  
C 13.4460000   16.2990000   21.5740000  
C 12.7310000   18.6960000   18.6170000  
C 13.7220000   19.6580000   18.3830000  
N 14.7840000   19.4880000   19.2560000  
O 12.4890000   20.8140000   16.7160000  
C 13.6870000   20.6390000   17.3110000  
O 14.6660000   21.2980000   17.0360000  
O 15.2720000   16.6430000   23.1550000  
O 12.8460000   15.3910000   22.3700000  
H 11.8790000   18.5050000   17.9900000  
H 11.9610000   20.0480000   16.9020000  
H 15.5650000   20.0910000   19.3630000  
H 16.0850000   17.2630000   23.2280000  
H 13.5380000   15.0240000   22.9410000  
C 16.4990000   18.7210000   21.4830000  
C 16.4290000   19.5660000   22.6010000  
C 17.5870000   20.2140000   23.0730000  
C 18.7640000   20.2090000   22.3170000  
C 18.8720000   19.3100000   21.2440000  
C 17.7470000   18.5930000   20.7920000  
C 15.4240000   19.9440000   23.5030000  
C 16.0520000   20.6840000   24.5180000  
N 17.3970000   20.9050000   24.1930000  
O 14.0510000   20.9550000   25.8070000  
C 15.3810000   21.1850000   25.6750000  
O 15.9590000   21.6990000   26.5720000  
O 20.1040000   19.1350000   20.7580000  
O 17.8510000   17.6620000   19.7740000  
H 14.3880000   19.7890000   23.3870000  
H 13.7980000   20.5660000   24.9600000  
H 18.0690000   21.4970000   24.6230000  
H 20.7830000   19.6510000   21.2090000  
H 18.8050000   17.4900000   19.6880000  
C 20.0280000   20.8920000   22.9410000  
C 20.7100000   20.2550000   23.9980000  
C 21.7490000   20.8660000   24.6450000  
C 22.2730000   22.0960000   24.2620000  
C 21.6890000   22.6260000   23.1160000  
C 20.5290000   22.1460000   22.5070000  
C 20.5670000   18.9230000   24.4610000  
C 21.5350000   18.6920000   25.4680000  
N 22.2520000   19.9590000   25.5400000  
O 20.9650000   16.4260000   26.0040000  
C 21.6840000   17.5370000   26.3600000  
O 22.4090000   17.5710000   27.3500000  
O 22.1250000   23.8920000   22.8950000  
O 19.8360000   22.9310000   21.6080000  
H 19.7640000   18.1720000   24.2250000  
H 20.3890000   16.5450000   25.2200000  
H 22.8230000   20.1970000   26.3040000  
H 21.3870000   24.4500000   22.4940000  
H 19.4610000   22.2690000   20.9190000  
H 23.1030000   22.5770000   24.7580000  
