76
001 
C 15.3190000   13.8050000   27.6680000  
C 15.2640000   14.7040000   28.8870000  
C 15.1490000   16.0740000   28.7400000  
C 15.0150000   16.5960000   27.4350000  
C 15.0610000   15.9530000   26.2410000  
C 15.1370000   14.5110000   26.2430000  
C 15.1630000   17.1490000   29.7110000  
C 15.3020000   18.3160000   28.9920000  
N 15.1510000   17.9880000   27.6750000  
O 15.7620000   19.6560000   30.7490000  
C 15.4430000   19.7210000   29.4580000  
O 15.3400000   20.7760000   28.8310000  
O 15.0370000   13.9070000   25.2010000  
O 15.5870000   12.6190000   27.6750000  
H 15.3490000   14.2480000   29.8880000  
H 15.1360000   16.9510000   30.7610000  
H 15.8390000   18.7510000   31.0220000  
H 14.9980000   18.6710000   26.9390000  
C 15.0440000   16.8510000   25.0980000  
C 16.1820000   17.5340000   24.5470000  
C 16.1660000   18.1420000   23.3510000  
C 15.0450000   18.3140000   22.5310000  
C 13.9090000   17.6420000   23.0250000  
C 13.8770000   16.9860000   24.3690000  
C 17.4900000   17.7330000   25.1220000  
C 18.1550000   18.5330000   24.1650000  
N 17.3410000   18.6570000   23.0340000  
O 20.2170000   18.8940000   25.3440000  
C 19.5350000   19.0780000   24.1760000  
O 20.0100000   19.6630000   23.2240000  
O 12.7760000   17.7460000   22.3170000  
O 12.6900000   16.4740000   24.8760000  
H 17.8860000   17.3030000   26.0770000  
H 19.5970000   18.5110000   25.9740000  
H 17.4980000   19.1710000   22.2070000  
H 12.9300000   18.1590000   21.4910000  
H 12.0930000   16.4960000   24.1140000  
C 15.0900000   18.9550000   21.1660000  
C 15.6960000   18.1990000   20.1530000  
C 15.8200000   18.7690000   18.9300000  
C 15.5550000   20.0870000   18.6030000  
C 14.9410000   20.8700000   19.6430000  
C 14.6560000   20.2760000   20.8710000  
C 16.1260000   16.8440000   20.0740000  
C 16.5910000   16.6900000   18.7910000  
N 16.6030000   17.9200000   18.1620000  
O 16.9690000   14.3970000   18.9270000  
C 17.1200000   15.4780000   18.1610000  
O 17.7430000   15.4280000   17.1100000  
O 14.5670000   22.1270000   19.4640000  
O 14.0950000   21.0130000   21.8860000  
H 15.9940000   16.1850000   20.8650000  
H 16.4680000   14.7570000   19.7060000  
H 16.6930000   17.9130000   17.1680000  
H 14.4950000   22.2040000   18.5050000  
H 13.7420000   21.7640000   21.4000000  
C 15.8500000   20.5540000   17.1850000  
C 15.5780000   19.9030000   15.9690000  
C 15.8760000   20.4210000   14.7590000  
C 16.7220000   21.5590000   14.6500000  
C 17.0560000   22.2010000   15.8360000  
C 16.6410000   21.7330000   17.1170000  
C 14.7500000   18.7440000   15.7600000  
C 14.9070000   18.4280000   14.4260000  
N 15.4200000   19.5550000   13.7550000  
O 14.0190000   16.3160000   14.5980000  
C 14.5020000   17.2290000   13.7420000  
O 14.6040000   17.0140000   12.5740000  
O 17.9750000   23.2480000   15.7150000  
O 17.0340000   22.4320000   18.2540000  
H 14.1790000   18.1660000   16.5190000  
H 14.1040000   16.7500000   15.4620000  
H 15.5880000   19.6810000   12.7910000  
H 18.3340000   23.4500000   16.5870000  
H 16.4410000   22.2750000   18.9830000  
H 17.0650000   21.8860000   13.7180000  
