76
001 
C 12.0960000   12.9170000   24.9150000  
C 12.6130000   12.9400000   26.2620000  
C 13.7630000   13.5190000   26.6550000  
C 14.3600000   14.5070000   25.8870000  
C 13.9550000   14.8090000   24.5880000  
C 12.9470000   13.9310000   23.9160000  
C 14.3670000   13.5820000   28.0120000  
C 15.3680000   14.5710000   27.9560000  
N 15.2620000   15.1670000   26.6380000  
O 16.2220000   14.1430000   30.1780000  
C 16.3190000   14.8930000   29.0590000  
O 17.1110000   15.8100000   28.9990000  
O 12.5910000   14.0770000   22.7470000  
O 11.1140000   12.2740000   24.4880000  
H 12.0630000   12.4390000   26.9600000  
H 14.1270000   12.9950000   28.8340000  
H 15.6440000   13.4650000   29.8980000  
H 15.7620000   16.0350000   26.3110000  
C 14.5570000   15.9320000   23.9150000  
C 15.9280000   15.8210000   23.5610000  
C 16.4860000   16.8920000   22.8430000  
C 15.8670000   18.0330000   22.3900000  
C 14.5160000   18.0870000   22.7410000  
C 13.8420000   17.0890000   23.5150000  
C 16.9440000   14.8350000   23.8990000  
C 18.1190000   15.4440000   23.4200000  
N 17.8450000   16.6430000   22.7440000  
O 19.5330000   13.8060000   24.2630000  
C 19.5220000   15.0260000   23.6450000  
O 20.5250000   15.6430000   23.3000000  
O 13.7130000   19.0360000   22.1630000  
O 12.5240000   17.2080000   23.7890000  
H 16.8900000   13.9380000   24.5140000  
H 18.6410000   13.5240000   24.1800000  
H 18.5910000   17.2080000   22.2580000  
H 14.2240000   19.6050000   21.5250000  
H 12.0540000   17.7940000   23.1840000  
C 16.5080000   18.8640000   21.2700000  
C 16.0510000   18.5820000   19.9700000  
C 16.4190000   19.4310000   19.0050000  
C 17.1780000   20.6320000   19.1880000  
C 17.6420000   20.8640000   20.5300000  
C 17.3170000   19.9940000   21.5730000  
C 15.0970000   17.6090000   19.3670000  
C 14.9830000   17.9930000   17.9850000  
N 15.7880000   19.1340000   17.8190000  
O 13.6270000   16.1970000   17.3680000  
C 14.1140000   17.3870000   17.0060000  
O 13.8920000   17.8560000   15.8640000  
O 18.2080000   22.0940000   20.7980000  
O 17.7350000   20.1890000   22.8550000  
H 14.4680000   16.8130000   19.8150000  
H 14.0510000   15.9680000   18.2580000  
H 15.8290000   19.7150000   16.9720000  
H 18.0810000   22.7010000   20.0110000  
H 18.2070000   21.0440000   22.7820000  
C 17.3800000   21.5940000   18.1040000  
C 16.6210000   22.7720000   18.0800000  
C 16.6190000   23.6260000   17.0280000  
C 17.3550000   23.3780000   15.8960000  
C 18.1990000   22.1980000   15.8760000  
C 18.1580000   21.2620000   16.9620000  
C 15.7900000   23.2970000   19.1050000  
C 15.3060000   24.4690000   18.5250000  
N 15.8180000   24.6950000   17.2590000  
O 14.1170000   25.1820000   20.5340000  
C 14.4800000   25.4160000   19.2040000  
O 14.1250000   26.4730000   18.7630000  
O 19.0210000   22.1380000   14.7840000  
O 19.0130000   20.1590000   17.0000000  
H 15.6720000   23.0130000   20.1200000  
H 14.5870000   24.3400000   20.7150000  
H 15.7120000   25.4770000   16.6420000  
H 19.6490000   21.4000000   15.0390000  
H 19.0370000   19.9180000   17.9140000  
H 17.3340000   24.0990000   15.0800000  
