76
001 
C 12.9260000   25.1700000   24.0430000  
C 13.8250000   25.3110000   25.2310000  
C 14.7550000   24.3800000   25.4170000  
C 14.9430000   23.3100000   24.5400000  
C 14.2970000   23.0390000   23.3960000  
C 13.2450000   24.0250000   23.0330000  
C 15.7170000   24.1740000   26.4820000  
C 16.3380000   22.9340000   26.3120000  
N 15.8530000   22.4840000   25.1070000  
O 17.6570000   22.9050000   28.2100000  
C 17.2390000   22.1810000   27.1730000  
O 17.6770000   21.0780000   26.8890000  
O 12.7280000   23.9490000   21.9350000  
O 11.9210000   25.8160000   23.9780000  
H 13.5520000   26.0490000   25.9680000  
H 15.7800000   24.8700000   27.3310000  
H 17.1620000   23.7300000   28.2280000  
H 16.1370000   21.6230000   24.6760000  
C 14.6450000   21.8280000   22.6460000  
C 14.0170000   20.6080000   22.9750000  
C 14.4630000   19.4290000   22.4240000  
C 15.5650000   19.2930000   21.5800000  
C 16.0640000   20.5030000   21.1540000  
C 15.5560000   21.8180000   21.5920000  
C 13.0080000   20.2780000   23.9810000  
C 13.1050000   18.9140000   24.1470000  
N 13.8620000   18.4050000   23.0700000  
O 11.5870000   18.8260000   25.9020000  
C 12.3190000   18.0820000   25.0960000  
O 12.3280000   16.8890000   25.2380000  
O 17.1250000   20.6010000   20.2180000  
O 15.9640000   23.0050000   21.0620000  
H 12.4450000   20.9590000   24.6090000  
H 11.7190000   19.7730000   25.6320000  
H 14.1160000   17.4450000   22.9050000  
H 17.4640000   19.6960000   20.0430000  
H 15.2970000   23.6880000   21.3310000  
C 16.0520000   18.0090000   21.0670000  
C 15.5180000   17.5530000   19.8070000  
C 15.8100000   16.2830000   19.4620000  
C 16.5500000   15.3490000   20.2200000  
C 17.2280000   15.8160000   21.3850000  
C 16.9850000   17.1570000   21.7750000  
C 14.6600000   18.0890000   18.7810000  
C 14.4590000   17.0450000   17.8820000  
N 15.1360000   15.9230000   18.3610000  
O 13.4260000   18.4310000   16.0930000  
C 13.8940000   17.2110000   16.5080000  
O 13.7710000   16.2330000   15.7770000  
O 18.0280000   14.9860000   22.1390000  
O 17.6600000   17.6740000   22.8370000  
H 14.4420000   19.1000000   18.5140000  
H 13.6210000   19.0820000   16.7700000  
H 15.1860000   14.9720000   17.9920000  
H 18.2270000   14.1990000   21.6230000  
H 18.3120000   17.0370000   23.1870000  
C 16.7730000   13.9440000   19.6890000  
C 18.0380000   13.3890000   19.2490000  
C 18.1260000   12.0540000   18.9230000  
C 17.1010000   11.1670000   19.0860000  
C 15.9050000   11.6920000   19.6050000  
C 15.6380000   13.0490000   19.8090000  
C 19.3670000   13.9810000   19.1030000  
C 20.2490000   12.9430000   18.8390000  
N 19.4710000   11.7880000   18.6530000  
O 22.2610000   14.2170000   18.8650000  
C 21.7380000   12.9840000   18.7660000  
O 22.4760000   12.0280000   18.5710000  
O 14.8530000   10.8640000   19.6990000  
O 14.4510000   13.6240000   20.1310000  
H 19.5810000   15.0520000   19.1150000  
H 21.7080000   14.9500000   18.8540000  
H 19.8420000   10.8840000   18.4910000  
H 14.2250000   11.3110000   20.2460000  
H 14.6420000   14.5410000   20.0340000  
H 17.1820000   10.1080000   18.9060000  
