76
001 
C 13.8040000   10.7800000   23.6750000  
C 13.5710000   11.0930000   25.0860000  
C 13.7450000   12.3870000   25.5200000  
C 14.1590000   13.4230000   24.7570000  
C 14.3560000   13.3180000   23.3930000  
C 14.1800000   12.0520000   22.7270000  
C 13.5470000   12.9250000   26.8250000  
C 13.8730000   14.3030000   26.8180000  
N 14.2840000   14.5720000   25.5260000  
O 13.2870000   14.8370000   29.1680000  
C 13.6210000   15.2510000   27.9320000  
O 13.8270000   16.4470000   27.6970000  
O 14.3280000   11.9580000   21.5300000  
O 13.7430000    9.6470000   23.1940000  
H 13.3100000   10.2470000   25.7160000  
H 13.1990000   12.3250000   27.6600000  
H 13.2850000   13.8820000   29.1970000  
H 14.3850000   15.4810000   25.1360000  
C 14.6270000   14.6440000   22.6940000  
C 15.8750000   15.0170000   22.3670000  
C 16.1860000   16.2430000   21.8990000  
C 15.2020000   17.2490000   21.6540000  
C 13.8540000   16.9200000   21.9110000  
C 13.6120000   15.6210000   22.4820000  
C 17.1240000   14.2910000   22.5770000  
C 18.1270000   15.2070000   22.2810000  
N 17.5640000   16.4380000   21.8040000  
O 19.9330000   13.6070000   22.7230000  
C 19.5680000   14.8640000   22.3700000  
O 20.3990000   15.7010000   22.0940000  
O 12.8340000   17.8450000   21.5870000  
O 12.2590000   15.3510000   22.8300000  
H 17.2550000   13.2280000   22.8980000  
H 19.0650000   13.1260000   22.7220000  
H 18.0550000   17.2440000   21.6460000  
H 13.1990000   18.7450000   21.6520000  
H 11.7840000   16.1650000   22.8020000  
C 15.6220000   18.6540000   21.3610000  
C 16.1490000   19.0750000   20.1080000  
C 16.4920000   20.3680000   19.8480000  
C 16.3020000   21.4410000   20.7370000  
C 15.8820000   21.0330000   22.0540000  
C 15.4700000   19.6810000   22.3780000  
C 16.8160000   18.4270000   18.9880000  
C 17.3310000   19.3380000   18.1070000  
N 17.1940000   20.5990000   18.6900000  
O 18.2240000   17.8110000   16.3630000  
C 18.1600000   19.1130000   16.8350000  
O 18.6210000   20.0520000   16.2310000  
O 15.9420000   21.9550000   23.0380000  
O 14.9440000   19.4880000   23.6290000  
H 16.9990000   17.3730000   18.9370000  
H 17.5670000   17.3330000   16.9210000  
H 17.5730000   21.4450000   18.2480000  
H 16.0200000   22.8120000   22.5820000  
H 15.0340000   20.2890000   24.1610000  
C 16.9580000   22.7670000   20.4630000  
C 16.2470000   23.7060000   19.7010000  
C 16.8650000   24.8520000   19.2110000  
C 18.1630000   25.2010000   19.5790000  
C 18.8110000   24.3470000   20.3990000  
C 18.2590000   23.1250000   20.8490000  
C 15.0110000   23.6370000   18.9370000  
C 14.8580000   24.8110000   18.2470000  
N 16.0610000   25.5540000   18.4200000  
O 12.6560000   24.2000000   17.5780000  
C 13.6000000   25.1630000   17.4870000  
O 13.4490000   26.2030000   16.8960000  
O 20.1000000   24.6840000   20.8130000  
O 18.9480000   22.3960000   21.7910000  
H 14.3200000   22.7610000   19.0770000  
H 12.9400000   23.5430000   18.1760000  
H 16.1230000   26.4940000   17.9830000  
H 20.2890000   24.0810000   21.5780000  
H 18.4440000   21.5580000   21.7690000  
H 18.6850000   26.0780000   19.1790000  
