76
001 
C 17.1880000   22.1980000   27.8170000  
C 15.8900000   22.4640000   28.4470000  
C 14.8420000   21.7090000   28.0610000  
C 14.8280000   20.7670000   27.0520000  
C 15.9410000   20.4320000   26.3150000  
C 17.2360000   21.0930000   26.7530000  
C 13.5570000   21.6990000   28.5520000  
C 12.7640000   20.7510000   27.9040000  
N 13.5560000   20.1900000   26.8740000  
O 10.7720000   21.0260000   29.3090000  
C 11.3020000   20.3740000   28.2370000  
O 10.6590000   19.6370000   27.4950000  
O 18.3350000   20.7520000   26.3300000  
O 18.1820000   22.9030000   28.0700000  
H 15.9150000   23.2580000   29.2010000  
H 13.2170000   22.4130000   29.2850000  
H 11.4000000   21.6970000   29.6150000  
H 13.3100000   19.5570000   26.1310000  
C 15.7280000   19.6720000   25.0870000  
C 15.5110000   20.3020000   23.8240000  
C 15.3290000   19.5610000   22.6870000  
C 15.4950000   18.1430000   22.6750000  
C 15.6580000   17.5030000   23.9770000  
C 15.7730000   18.2600000   25.1460000  
C 15.6400000   21.6610000   23.5020000  
C 15.5760000   21.7090000   22.1380000  
N 15.5120000   20.3720000   21.5910000  
O 15.6510000   24.0490000   21.9240000  
C 15.7290000   22.9110000   21.2430000  
O 15.8150000   22.9190000   20.0460000  
O 15.9590000   16.1660000   23.9570000  
O 16.1580000   17.6620000   26.3080000  
H 15.9330000   22.4070000   24.2290000  
H 15.4140000   23.7420000   22.8230000  
H 15.7290000   20.1020000   20.6290000  
H 15.4680000   15.8700000   23.1240000  
H 16.6050000   16.8800000   26.0170000  
C 15.7060000   17.4060000   21.4140000  
C 16.6140000   17.7430000   20.4080000  
C 16.5150000   17.1680000   19.1550000  
C 15.6160000   16.2410000   18.7780000  
C 14.8250000   15.7420000   19.8690000  
C 14.7920000   16.4000000   21.1330000  
C 17.7300000   18.6330000   20.3120000  
C 18.1810000   18.6240000   19.0050000  
N 17.4490000   17.7180000   18.2910000  
O 19.6810000   20.3730000   19.4220000  
C 19.2270000   19.5340000   18.4490000  
O 19.5980000   19.4990000   17.2580000  
O 13.8580000   14.9170000   19.5170000  
O 13.7320000   16.0920000   21.9850000  
H 18.1180000   19.2290000   21.1160000  
H 19.0580000   20.3520000   20.1860000  
H 17.5700000   17.4830000   17.3200000  
H 14.1760000   14.5280000   18.7140000  
H 13.2320000   15.2920000   21.6210000  
C 15.4110000   15.7520000   17.4030000  
C 15.9060000   14.4750000   17.0840000  
C 15.7690000   13.9760000   15.8200000  
C 15.2900000   14.7730000   14.7480000  
C 14.8840000   16.0920000   15.0350000  
C 14.9280000   16.5950000   16.3490000  
C 16.7410000   13.4750000   17.8080000  
C 17.1790000   12.5300000   16.8290000  
N 16.4700000   12.7750000   15.6660000  
O 18.6100000   11.1560000   18.2270000  
C 18.1950000   11.4820000   17.0010000  
O 18.6150000   10.7950000   16.0720000  
O 14.4990000   16.9470000   14.1050000  
O 14.5170000   17.8650000   16.6910000  
H 17.2930000   13.5150000   18.8060000  
H 18.0150000   11.7610000   18.7610000  
H 16.5500000   12.2270000   14.7950000  
H 14.7870000   17.7840000   14.5940000  
H 14.1730000   17.8510000   17.6190000  
H 15.3300000   14.3570000   13.7830000  
