76
001 
C 10.8120000   21.5560000   16.7780000  
C 10.5300000   22.6640000   17.7130000  
C 11.1870000   22.7410000   18.9130000  
C 12.2130000   21.8520000   19.2550000  
C 12.3970000   20.6810000   18.5640000  
C 11.6770000   20.3520000   17.3120000  
C 11.1330000   23.7180000   19.9880000  
C 12.0980000   23.3500000   20.9550000  
N 12.7150000   22.2140000   20.4600000  
O 12.1100000   25.2450000   22.4810000  
C 12.5340000   24.0030000   22.2170000  
O 13.4140000   23.5240000   22.8680000  
O 11.8300000   19.2640000   16.7600000  
O 10.2260000   21.4540000   15.7320000  
H  9.7690000   23.4320000   17.4760000  
H 10.5300000   24.5890000   20.0990000  
H 11.5730000   25.5380000   21.6850000  
H 13.5300000   21.8940000   20.8910000  
C 13.2910000   19.7220000   19.2210000  
C 12.8900000   19.2380000   20.4490000  
C 13.7140000   18.4870000   21.1820000  
C 15.0000000   18.1400000   20.9090000  
C 15.4430000   18.5050000   19.6160000  
C 14.5700000   19.2450000   18.7630000  
C 11.6620000   19.4460000   21.1770000  
C 11.8640000   18.8030000   22.4030000  
N 13.1470000   18.3030000   22.4280000  
O  9.7920000   19.6730000   23.3600000  
C 10.9540000   18.9560000   23.5820000  
O 11.2780000   18.6670000   24.6880000  
O 16.6800000   18.1690000   19.1400000  
O 15.0330000   19.5610000   17.4790000  
H 10.7290000   19.9230000   20.7990000  
H  9.9120000   19.8330000   22.4020000  
H 13.6180000   17.8760000   23.2040000  
H 17.1840000   17.7550000   19.9210000  
H 14.2870000   20.0080000   17.0860000  
C 15.9760000   17.5140000   21.8180000  
C 16.5450000   16.2650000   21.5860000  
C 17.4730000   15.8110000   22.4500000  
C 17.9090000   16.3290000   23.6240000  
C 17.4350000   17.6430000   23.8190000  
C 16.4270000   18.2050000   22.9750000  
C 16.3160000   15.2970000   20.5060000  
C 17.3550000   14.3680000   20.6620000  
N 17.9820000   14.6560000   21.9000000  
O 17.0570000   13.3970000   18.5090000  
C 17.8190000   13.3370000   19.6900000  
O 18.7890000   12.6330000   19.8510000  
O 17.9100000   18.3400000   24.8850000  
O 16.0420000   19.4290000   23.2420000  
H 15.5430000   15.2130000   19.7670000  
H 16.3110000   13.9780000   18.6240000  
H 18.7000000   14.0280000   22.3770000  
H 18.8150000   18.1100000   25.2350000  
H 16.5930000   19.7980000   23.9460000  
C 18.9430000   15.6800000   24.4800000  
C 20.3000000   15.8790000   24.1540000  
C 21.3250000   15.3460000   24.9210000  
C 21.0710000   14.5230000   26.0230000  
C 19.7570000   14.2570000   26.3580000  
C 18.6310000   14.8240000   25.5960000  
C 20.8850000   16.7560000   23.2250000  
C 22.2800000   16.7140000   23.4600000  
N 22.4990000   15.8680000   24.5640000  
O 22.6710000   18.0460000   21.6430000  
C 23.2570000   17.3480000   22.5960000  
O 24.4330000   17.3260000   22.6560000  
O 19.4370000   13.4740000   27.3910000  
O 17.3490000   14.4890000   25.9280000  
H 20.3530000   17.2780000   22.4500000  
H 21.7350000   17.8510000   21.6310000  
H 23.3090000   15.6510000   24.9850000  
H 18.4350000   13.7170000   27.5760000  
H 16.7290000   14.5060000   25.1010000  
H 21.8510000   14.1120000   26.6130000  
