76
001 
C 16.4780000   11.8110000   25.5650000  
C 15.2000000   11.9560000   26.3630000  
C 14.3920000   13.0420000   26.2840000  
C 14.6740000   14.0830000   25.3730000  
C 15.7520000   14.0580000   24.4940000  
C 16.7820000   12.9730000   24.5570000  
C 13.2220000   13.4610000   26.9730000  
C 12.7810000   14.7290000   26.4920000  
N 13.6920000   15.0360000   25.4820000  
O 10.8820000   14.9930000   27.9220000  
C 11.5330000   15.4350000   26.8270000  
O 11.1690000   16.4200000   26.1900000  
O 17.7340000   12.8990000   23.7350000  
O 17.1890000   10.8940000   25.7150000  
H 15.0080000   11.0670000   27.0110000  
H 12.6850000   12.8310000   27.6850000  
H 11.3610000   14.2270000   28.1980000  
H 13.4720000   15.7290000   24.7690000  
C 15.8500000   15.2160000   23.6630000  
C 16.5780000   16.2870000   24.0640000  
C 16.6180000   17.4410000   23.3530000  
C 15.9370000   17.7160000   22.1090000  
C 15.2650000   16.5500000   21.6160000  
C 15.1600000   15.4190000   22.4640000  
C 17.5310000   16.3700000   25.1710000  
C 18.1310000   17.6400000   25.1370000  
N 17.5900000   18.2980000   23.9800000  
O 19.4040000   17.1920000   27.0870000  
C 19.0510000   18.0470000   26.1490000  
O 19.4130000   19.2160000   26.2340000  
O 14.5560000   16.6050000   20.4330000  
O 14.2660000   14.4990000   22.0340000  
H 17.6530000   15.6200000   25.9940000  
H 18.9770000   16.3720000   26.9240000  
H 17.8230000   19.2470000   23.6500000  
H 14.4100000   17.5220000   20.2280000  
H 13.8910000   14.7290000   21.1670000  
C 16.2670000   18.9370000   21.3550000  
C 16.9390000   18.8340000   20.1170000  
C 17.1030000   19.9550000   19.4070000  
C 16.6630000   21.2390000   19.7730000  
C 16.1060000   21.3880000   21.0510000  
C 15.8490000   20.2330000   21.7760000  
C 17.4820000   17.7860000   19.4070000  
C 17.7710000   18.3040000   18.1410000  
N 17.5840000   19.6320000   18.1660000  
O 18.1670000   16.1320000   17.0640000  
C 18.1480000   17.5060000   16.9510000  
O 18.5980000   17.9990000   15.8890000  
O 15.6500000   22.6260000   21.5380000  
O 15.2230000   20.4570000   23.0030000  
H 17.6380000   16.7580000   19.7870000  
H 17.8640000   15.8220000   17.9070000  
H 17.7130000   20.3100000   17.4200000  
H 15.5130000   23.1680000   20.7390000  
H 14.8830000   21.3710000   22.8640000  
C 16.5690000   22.3620000   18.7100000  
C 15.3620000   22.4790000   17.9530000  
C 15.1880000   23.5330000   17.0880000  
C 16.1430000   24.4600000   16.9160000  
C 17.3270000   24.4030000   17.7320000  
C 17.5310000   23.3620000   18.6750000  
C 14.2050000   21.6790000   17.9630000  
C 13.3640000   22.1980000   17.0120000  
N 14.0380000   23.3110000   16.4320000  
O 11.6570000   20.5950000   17.3660000  
C 12.0210000   21.6890000   16.6960000  
O 11.3000000   22.2380000   15.8370000  
O 18.2450000   25.3730000   17.5570000  
O 18.5860000   23.2090000   19.4980000  
H 13.9210000   20.9360000   18.7060000  
H 12.4000000   20.4630000   17.9430000  
H 13.6770000   23.7920000   15.6180000  
H 19.0040000   25.1190000   18.0840000  
H 18.4330000   22.5630000   20.1170000  
H 15.9770000   25.2460000   16.1780000  
