76
001 
C 12.7300000   11.1740000   21.7150000  
C 12.5180000   11.0060000   23.2060000  
C 12.8660000   11.9400000   24.0630000  
C 13.3890000   13.2280000   23.6720000  
C 13.5230000   13.5570000   22.3510000  
C 13.2980000   12.5360000   21.2630000  
C 13.0330000   11.9040000   25.4850000  
C 13.6270000   13.0740000   25.9490000  
N 13.7040000   13.9170000   24.8290000  
O 13.8840000   12.4860000   28.2600000  
C 13.8170000   13.4530000   27.3300000  
O 14.0050000   14.6220000   27.6400000  
O 13.3650000   12.7140000   20.0620000  
O 12.5410000   10.2360000   20.8980000  
H 12.2420000   10.0540000   23.5900000  
H 12.8190000   11.0680000   26.1240000  
H 13.8530000   11.6550000   27.7460000  
H 14.1040000   14.8310000   24.7570000  
C 14.1120000   14.8740000   22.0240000  
C 15.4520000   15.1320000   22.3710000  
C 16.0060000   16.3440000   22.1040000  
C 15.3100000   17.3790000   21.4270000  
C 13.8630000   17.1610000   21.1620000  
C 13.2640000   15.8970000   21.4380000  
C 16.4670000   14.3310000   23.0330000  
C 17.5630000   15.1550000   23.0950000  
N 17.3270000   16.3770000   22.4080000  
O 18.8790000   13.5740000   24.2400000  
C 18.9040000   14.7950000   23.6540000  
O 19.8990000   15.4750000   23.4990000  
O 13.1120000   18.1450000   20.5390000  
O 11.9390000   15.6340000   20.9980000  
H 16.3420000   13.2760000   23.3200000  
H 17.9260000   13.2750000   24.2560000  
H 17.9260000   17.1590000   22.3020000  
H 13.5200000   19.0250000   20.7750000  
H 11.4270000   16.3920000   20.9950000  
C 15.8980000   18.7940000   21.1540000  
C 15.9460000   19.4120000   19.8920000  
C 16.5340000   20.6030000   19.6270000  
C 17.1740000   21.3410000   20.6140000  
C 17.0330000   20.7900000   21.9240000  
C 16.5000000   19.5040000   22.2050000  
C 15.6360000   18.9290000   18.5130000  
C 16.0270000   19.8900000   17.6090000  
N 16.6800000   20.8710000   18.2810000  
O 15.6570000   18.5350000   15.6490000  
C 16.1030000   19.7120000   16.1260000  
O 16.3950000   20.6500000   15.4010000  
O 17.5110000   21.5570000   22.9720000  
O 16.3210000   19.0970000   23.4730000  
H 15.1930000   18.0360000   18.2550000  
H 15.2130000   18.0510000   16.4120000  
H 17.2500000   21.5950000   17.9720000  
H 17.5050000   22.4730000   22.6350000  
H 16.7370000   19.7610000   24.0770000  
C 17.8570000   22.6480000   20.3400000  
C 17.3640000   23.9020000   20.8110000  
C 17.9850000   25.0630000   20.4750000  
C 19.1290000   25.0790000   19.6920000  
C 19.7750000   23.8750000   19.3280000  
C 19.1080000   22.6200000   19.7110000  
C 16.1590000   24.2390000   21.5420000  
C 16.1690000   25.5950000   21.7740000  
N 17.2160000   26.1130000   21.0530000  
O 14.4310000   25.7640000   23.4200000  
C 15.3290000   26.4000000   22.6310000  
O 15.3680000   27.5910000   22.5710000  
O 20.8830000   23.9300000   18.5790000  
O 19.7470000   21.4660000   19.3610000  
H 15.4660000   23.5320000   22.0250000  
H 14.4790000   24.8150000   23.2520000  
H 17.5100000   27.1130000   21.2790000  
H 21.1140000   23.0420000   18.2500000  
H 19.3810000   20.6930000   19.8410000  
H 19.6380000   25.9780000   19.3170000  
