76
001 
C 10.1830000   21.4430000   17.8750000  
C 10.3440000   22.8740000   18.0730000  
C 11.1680000   23.3810000   19.0870000  
C 12.1580000   22.6620000   19.7110000  
C 12.2090000   21.2820000   19.5150000  
C 11.2030000   20.5510000   18.6790000  
C 11.4230000   24.7280000   19.4160000  
C 12.5480000   24.7730000   20.2500000  
N 12.8780000   23.4670000   20.5180000  
O 12.5500000   27.2080000   20.6850000  
C 13.1160000   25.9910000   20.9410000  
O 14.0710000   25.8990000   21.7040000  
O 11.2150000   19.3040000   18.4600000  
O  9.3140000   20.9110000   17.2290000  
H  9.6550000   23.4820000   17.4880000  
H 10.8910000   25.5150000   19.0160000  
H 11.8450000   27.0420000   19.9910000  
H 13.5540000   23.1570000   21.1780000  
C 13.3020000   20.6230000   20.2780000  
C 12.9760000   19.7560000   21.3220000  
C 13.9780000   18.9420000   21.8730000  
C 15.3600000   19.0650000   21.5960000  
C 15.7070000   20.1260000   20.7030000  
C 14.7010000   20.8300000   19.9930000  
C 11.7190000   19.1800000   21.6950000  
C 11.9960000   18.0610000   22.4050000  
N 13.3950000   17.9360000   22.5330000  
O  9.7140000   17.3560000   22.6570000  
C 11.0540000   17.0300000   22.8830000  
O 11.4080000   15.9790000   23.4050000  
O 17.0030000   20.3650000   20.3400000  
O 15.1000000   21.6810000   18.9800000  
H 10.6890000   19.4220000   21.4890000  
H  9.8170000   18.2220000   22.1830000  
H 13.8780000   17.0540000   22.8060000  
H 17.5560000   19.8500000   20.9490000  
H 14.3720000   21.7120000   18.3480000  
C 16.2630000   18.0530000   22.1900000  
C 16.7880000   16.9850000   21.4390000  
C 17.5110000   15.9750000   21.9810000  
C 17.9980000   15.9150000   23.2660000  
C 17.6290000   17.0730000   23.9540000  
C 16.8070000   18.1060000   23.4660000  
C 16.5870000   16.5390000   20.1390000  
C 17.2150000   15.3270000   19.9310000  
N 17.7720000   14.9330000   21.1800000  
O 16.6360000   15.0130000   17.5790000  
C 17.1610000   14.4730000   18.7190000  
O 17.6800000   13.3930000   18.7360000  
O 18.0700000   17.1230000   25.2910000  
O 16.4040000   19.0880000   24.3290000  
H 15.9310000   16.9360000   19.3800000  
H 16.4760000   15.9530000   17.8330000  
H 18.2820000   14.2270000   21.4330000  
H 18.5530000   16.2940000   25.4790000  
H 16.9350000   19.0440000   25.1190000  
C 18.8710000   14.7540000   23.7560000  
C 20.2390000   14.8940000   24.0870000  
C 21.0630000   13.9030000   24.4740000  
C 20.6460000   12.6040000   24.6560000  
C 19.3000000   12.3370000   24.3280000  
C 18.4050000   13.4180000   23.9020000  
C 21.0620000   16.0460000   23.9930000  
C 22.3850000   15.6560000   24.2610000  
N 22.3120000   14.2710000   24.5020000  
O 23.3690000   17.8150000   24.1000000  
C 23.6280000   16.4890000   24.2040000  
O 24.7400000   16.0410000   24.2440000  
O 18.8270000   11.1010000   24.5540000  
O 17.0870000   13.1790000   23.5500000  
H 20.7970000   17.0410000   23.7220000  
H 22.4270000   17.8830000   24.0150000  
H 23.1240000   13.7180000   24.8080000  
H 17.9200000   11.0710000   24.2580000  
H 16.6990000   14.0450000   23.2570000  
H 21.3570000   11.7900000   24.8790000  
