76
001 
C 14.6100000   12.5600000   26.1140000  
C 13.8730000   13.0350000   27.2340000  
C 13.7360000   14.4110000   27.4270000  
C 14.2690000   15.3770000   26.5500000  
C 15.1000000   15.1140000   25.5500000  
C 15.3110000   13.6870000   25.1600000  
C 12.9350000   15.0970000   28.3760000  
C 13.1320000   16.4840000   28.2320000  
N 14.0570000   16.5490000   27.1310000  
O 11.6930000   17.0730000   29.9600000  
C 12.5620000   17.5910000   29.0260000  
O 12.7480000   18.7810000   28.9310000  
O 15.9510000   13.3280000   24.1960000  
O 14.6560000   11.3720000   25.8450000  
H 13.5050000   12.2230000   27.9450000  
H 12.3150000   14.5370000   29.0570000  
H 11.8980000   16.1520000   30.0930000  
H 14.4550000   17.3640000   26.7520000  
C 15.5030000   16.2790000   24.6670000  
C 16.8270000   16.5410000   24.3080000  
C 17.1340000   17.3320000   23.3220000  
C 16.2700000   18.0240000   22.4470000  
C 14.9100000   17.8240000   22.7980000  
C 14.5360000   16.9560000   23.8340000  
C 18.0570000   16.1200000   24.8640000  
C 19.1140000   16.7190000   24.1360000  
N 18.4520000   17.5140000   23.1980000  
O 20.9080000   15.7880000   25.3410000  
C 20.5390000   16.4920000   24.2620000  
O 21.3730000   16.9290000   23.4860000  
O 13.9290000   18.3550000   22.0600000  
O 13.1790000   16.6080000   23.9330000  
H 18.1410000   15.5100000   25.7340000  
H 20.1070000   15.5440000   25.8360000  
H 19.0070000   17.9850000   22.4890000  
H 14.3490000   18.8690000   21.2530000  
H 12.6930000   17.1450000   23.2830000  
C 16.7040000   18.7280000   21.1520000  
C 16.3590000   18.0860000   19.9000000  
C 16.5320000   18.7940000   18.7270000  
C 16.9620000   20.1500000   18.6990000  
C 17.4460000   20.6730000   19.9680000  
C 17.3290000   19.9710000   21.2050000  
C 15.7010000   16.8380000   19.5520000  
C 15.2250000   17.0670000   18.2710000  
N 15.8220000   18.1850000   17.6970000  
O 13.7260000   15.1770000   18.1450000  
C 14.2580000   16.2390000   17.5050000  
O 13.9650000   16.5230000   16.3740000  
O 17.9100000   21.9830000   20.0130000  
O 17.7090000   20.5500000   22.4000000  
H 15.5060000   15.9470000   20.1380000  
H 14.1580000   15.1330000   18.9770000  
H 15.9470000   18.3050000   16.7540000  
H 18.2110000   22.0730000   19.1070000  
H 17.9920000   21.4650000   22.1670000  
C 17.0970000   20.9040000   17.3990000  
C 16.2440000   21.9500000   17.1240000  
C 16.2440000   22.6930000   15.9810000  
C 17.0860000   22.4140000   14.8660000  
C 18.0030000   21.3410000   15.1260000  
C 18.0450000   20.6580000   16.3590000  
C 15.1640000   22.4420000   17.9510000  
C 14.5200000   23.4690000   17.2230000  
N 15.2580000   23.6340000   16.0350000  
O 12.9530000   23.8430000   18.9690000  
C 13.2840000   24.1460000   17.6760000  
O 12.6680000   24.9630000   17.0310000  
O 18.9870000   21.0700000   14.2280000  
O 19.0350000   19.7850000   16.6060000  
H 14.8310000   21.9860000   18.8750000  
H 13.6740000   23.2790000   19.2600000  
H 15.0350000   24.2250000   15.2330000  
H 19.6150000   20.4130000   14.5130000  
H 18.7730000   19.3360000   17.4780000  
H 17.0440000   22.9990000   13.9890000  
