76
001 
C 13.3880000   11.2670000   22.0140000  
C 13.0800000   10.9970000   23.3980000  
C 13.2620000   11.9890000   24.3440000  
C 13.6520000   13.2610000   24.0170000  
C 13.9520000   13.7020000   22.7290000  
C 13.8740000   12.7390000   21.5980000  
C 13.0380000   11.9260000   25.7710000  
C 13.4040000   13.1850000   26.2170000  
N 13.7520000   13.9440000   25.1300000  
O 12.9620000   12.8310000   28.4610000  
C 13.3980000   13.7200000   27.5950000  
O 13.7840000   14.8530000   27.9450000  
O 14.0310000   13.0820000   20.4500000  
O 13.2190000   10.4730000   21.1010000  
H 12.6970000   10.0440000   23.6530000  
H 12.7750000   10.9960000   26.2690000  
H 12.8610000   12.0290000   27.9340000  
H 13.8440000   14.9790000   25.0710000  
C 14.3670000   15.0740000   22.5830000  
C 15.6880000   15.3530000   22.4450000  
C 16.1310000   16.6760000   22.4090000  
C 15.2780000   17.7830000   22.2200000  
C 13.8830000   17.5420000   22.4100000  
C 13.4260000   16.1780000   22.6570000  
C 16.8870000   14.5330000   22.5000000  
C 17.9740000   15.3840000   22.3410000  
N 17.5330000   16.6820000   22.1710000  
O 19.5120000   13.7230000   22.6970000  
C 19.3650000   14.9950000   22.3970000  
O 20.2420000   15.7820000   22.2250000  
O 12.9360000   18.5340000   22.4270000  
O 12.1080000   15.9440000   22.8990000  
H 16.8940000   13.4560000   22.7310000  
H 18.5640000   13.3280000   22.7680000  
H 18.1240000   17.4890000   21.9970000  
H 13.4590000   19.3350000   22.3160000  
H 11.6840000   16.7420000   22.7910000  
C 15.8030000   19.1010000   21.8430000  
C 16.1960000   19.2030000   20.4980000  
C 16.8430000   20.3370000   20.0870000  
C 17.2410000   21.4280000   20.8720000  
C 16.7780000   21.3480000   22.2290000  
C 16.0430000   20.2220000   22.6760000  
C 16.0620000   18.2810000   19.4000000  
C 16.7550000   18.9490000   18.3660000  
N 17.2750000   20.1930000   18.8070000  
O 16.4670000   17.1220000   16.9030000  
C 16.9320000   18.4130000   16.9770000  
O 17.6340000   18.9180000   16.0850000  
O 17.3630000   22.2090000   23.1110000  
O 15.7540000   20.1180000   23.9760000  
H 15.6570000   17.2640000   19.4310000  
H 16.1790000   17.0860000   17.8780000  
H 17.7190000   20.9210000   18.3000000  
H 17.5420000   23.0330000   22.6120000  
H 16.0120000   20.9660000   24.4040000  
C 17.7880000   22.6620000   20.2700000  
C 16.8960000   23.7100000   19.8900000  
C 17.3480000   24.9120000   19.3780000  
C 18.7430000   25.1100000   19.2600000  
C 19.5920000   24.1810000   19.7060000  
C 19.1350000   22.9370000   20.1710000  
C 15.4520000   23.8140000   19.9320000  
C 15.1090000   25.0660000   19.5160000  
N 16.3110000   25.7730000   19.1380000  
O 12.7420000   24.7910000   19.9380000  
C 13.7280000   25.6940000   19.6450000  
O 13.5310000   26.8700000   19.4430000  
O 20.9040000   24.5600000   19.6210000  
O 20.0940000   21.9600000   20.6070000  
H 14.7430000   23.0310000   20.3140000  
H 13.1710000   23.9620000   20.0820000  
H 16.5350000   26.8050000   19.0950000  
H 21.3270000   23.8040000   20.0560000  
H 19.6910000   21.3050000   21.1910000  
H 19.0980000   26.0980000   19.0080000  
