76
001 
C 10.5050000   19.8270000   16.6260000  
C  9.9880000   21.2120000   16.8820000  
C 10.6020000   21.9440000   17.8960000  
C 11.4790000   21.3780000   18.7880000  
C 11.9810000   20.1040000   18.7030000  
C 11.6630000   19.2390000   17.5900000  
C 10.3470000   23.2710000   18.3850000  
C 11.2060000   23.5150000   19.4040000  
N 11.8170000   22.2900000   19.7470000  
O 10.7020000   25.8900000   19.7170000  
C 11.4190000   24.7720000   20.1500000  
O 12.0840000   24.8600000   21.1530000  
O 12.2230000   18.1890000   17.4840000  
O 10.0340000   19.1790000   15.7330000  
H  9.1790000   21.5520000   16.2140000  
H  9.6490000   23.8950000   17.9860000  
H 10.2680000   25.5980000   18.8560000  
H 12.3690000   22.0040000   20.6080000  
C 13.1360000   19.8250000   19.5830000  
C 12.9790000   18.9530000   20.6300000  
C 14.0420000   18.5670000   21.4210000  
C 15.3790000   18.9860000   21.2790000  
C 15.5500000   19.8680000   20.1280000  
C 14.4240000   20.3400000   19.3500000  
C 11.7800000   18.2470000   21.0140000  
C 12.1850000   17.4670000   22.1090000  
N 13.5690000   17.6610000   22.3250000  
O 10.1470000   16.2400000   22.3950000  
C 11.3490000   16.4770000   22.8540000  
O 11.8540000   15.8020000   23.7980000  
O 16.8080000   20.2900000   19.8590000  
O 14.6410000   21.0870000   18.2740000  
H 10.7800000   18.3850000   20.6470000  
H 10.0530000   16.7250000   21.5730000  
H 14.0530000   17.3520000   23.1150000  
H 17.2030000   20.3360000   20.7030000  
H 13.8000000   21.2140000   17.8070000  
C 16.4950000   18.4690000   22.1410000  
C 16.5900000   17.0740000   22.2750000  
C 17.5760000   16.6190000   23.0510000  
C 18.4900000   17.3480000   23.8310000  
C 18.4440000   18.7130000   23.6260000  
C 17.4660000   19.2930000   22.7920000  
C 15.9510000   15.9450000   21.6390000  
C 16.6410000   14.8000000   22.0600000  
N 17.6410000   15.2080000   22.9800000  
O 15.2530000   13.1850000   20.9720000  
C 16.3350000   13.3820000   21.7170000  
O 17.0110000   12.5370000   22.2560000  
O 19.3270000   19.4920000   24.3020000  
O 17.6100000   20.6340000   22.6160000  
H 15.2260000   15.9380000   20.7890000  
H 14.9910000   14.0510000   20.7430000  
H 18.2860000   14.5710000   23.5020000  
H 20.0380000   19.0420000   24.8430000  
H 18.1810000   20.8610000   23.3720000  
C 19.5080000   16.6820000   24.7540000  
C 20.8030000   16.2970000   24.3120000  
C 21.7210000   15.6640000   25.0540000  
C 21.4200000   15.2960000   26.3810000  
C 20.1750000   15.7560000   26.9150000  
C 19.1350000   16.3930000   26.0940000  
C 21.4580000   16.3430000   22.9860000  
C 22.7430000   15.8550000   23.0450000  
N 22.9030000   15.3830000   24.3880000  
O 23.2560000   16.2810000   20.7220000  
C 23.6830000   15.8040000   21.9340000  
O 24.8110000   15.3470000   22.1070000  
O 19.9740000   15.5520000   28.2700000  
O 17.9230000   16.7510000   26.6420000  
H 20.9850000   16.7940000   22.1590000  
H 22.3960000   16.6980000   20.8800000  
H 23.6400000   14.8350000   24.8290000  
H 19.1760000   15.9600000   28.5270000  
H 17.4580000   17.3630000   25.9690000  
H 22.1590000   14.8240000   27.0350000  
