76
001 
C 12.3260000   11.4150000   21.3820000  
C 11.8700000   11.3900000   22.7310000  
C 12.3010000   12.2970000   23.6920000  
C 13.1010000   13.3420000   23.3800000  
C 13.6260000   13.5550000   22.1100000  
C 13.2340000   12.6480000   20.9780000  
C 11.9430000   12.4170000   25.0780000  
C 12.5670000   13.5850000   25.5320000  
N 13.3020000   14.1110000   24.4830000  
O 11.5260000   13.6130000   27.6700000  
C 12.3180000   14.3090000   26.8090000  
O 12.8140000   15.3860000   27.1100000  
O 13.5140000   12.8170000   19.8150000  
O 11.9820000   10.5260000   20.6030000  
H 11.2100000   10.5770000   23.0370000  
H 11.2960000   11.7340000   25.6080000  
H 11.2890000   12.8300000   27.1630000  
H 13.9470000   14.9270000   24.5240000  
C 14.2570000   14.9090000   21.8600000  
C 15.6160000   14.9210000   21.6140000  
C 16.3010000   16.1160000   21.5680000  
C 15.6550000   17.3740000   21.6220000  
C 14.2670000   17.3590000   21.7570000  
C 13.5550000   16.1420000   22.0190000  
C 16.6830000   13.8890000   21.4450000  
C 17.8850000   14.5830000   21.3550000  
N 17.6570000   15.9560000   21.3540000  
O 19.0910000   12.6880000   20.8060000  
C 19.1890000   13.9730000   21.1560000  
O 20.2500000   14.5430000   21.3360000  
O 13.5510000   18.5400000   21.6090000  
O 12.1610000   16.1620000   22.1740000  
H 16.5200000   12.7900000   21.3560000  
H 18.1590000   12.5440000   20.7800000  
H 18.3610000   16.6600000   21.0770000  
H 14.0890000   19.3770000   21.4570000  
H 11.8460000   17.0280000   22.5510000  
C 16.4130000   18.6610000   21.3930000  
C 16.2680000   19.3530000   20.1860000  
C 16.8770000   20.5820000   20.0320000  
C 17.7030000   21.2480000   20.9840000  
C 17.8940000   20.5280000   22.1610000  
C 17.1680000   19.3060000   22.3980000  
C 15.5280000   18.9400000   18.9760000  
C 15.7140000   20.0860000   18.1610000  
N 16.5000000   21.0530000   18.8170000  
O 14.4910000   19.0910000   16.4360000  
C 15.2320000   20.1850000   16.7370000  
O 15.4110000   21.1160000   15.9870000  
O 18.5910000   20.9970000   23.2860000  
O 17.3590000   18.7020000   23.5760000  
H 15.2410000   17.9530000   18.7670000  
H 14.6050000   18.4010000   17.1010000  
H 16.8550000   21.9070000   18.4120000  
H 18.6690000   21.9620000   23.2550000  
H 17.9760000   19.2440000   24.0630000  
C 18.2870000   22.6120000   20.7580000  
C 17.7570000   23.7850000   21.4230000  
C 18.2090000   25.0450000   21.2440000  
C 19.2600000   25.3000000   20.3700000  
C 19.7710000   24.1660000   19.5740000  
C 19.2770000   22.8620000   19.7630000  
C 16.8290000   23.7460000   22.5280000  
C 16.7710000   25.0900000   22.9700000  
N 17.5370000   25.9130000   22.1190000  
O 15.2710000   24.5620000   24.6960000  
C 15.9240000   25.5640000   24.1010000  
O 15.8180000   26.7680000   24.3360000  
O 20.7150000   24.3260000   18.5970000  
O 19.7440000   21.8700000   18.9950000  
H 16.2660000   22.9250000   23.0050000  
H 15.6130000   23.7300000   24.2380000  
H 17.7780000   26.8820000   22.2660000  
H 20.9590000   23.4650000   18.2400000  
H 19.3030000   21.0170000   19.2360000  
H 19.7420000   26.1840000   20.2330000  
