76
001 
C 11.3930000   13.0110000   25.1140000  
C 12.3350000   12.4840000   26.1910000  
C 13.6620000   12.9690000   26.1820000  
C 14.1910000   13.9110000   25.3030000  
C 13.4330000   14.4580000   24.2720000  
C 11.9870000   14.1390000   24.1970000  
C 14.6120000   12.8550000   27.2330000  
C 15.7120000   13.6860000   26.9060000  
N 15.3080000   14.3880000   25.7870000  
O 17.1980000   13.3150000   28.7490000  
C 17.0220000   13.9510000   27.5910000  
O 17.9080000   14.7100000   27.2050000  
O 11.2640000   14.7010000   23.3550000  
O 10.2620000   12.6230000   24.9160000  
H 11.9970000   11.7280000   26.9220000  
H 14.4880000   12.2060000   28.0610000  
H 16.3630000   12.9380000   28.9370000  
H 15.8470000   15.1240000   25.3200000  
C 14.0930000   15.5160000   23.5340000  
C 15.0070000   15.2020000   22.5250000  
C 15.6730000   16.2010000   21.9050000  
C 15.5240000   17.5100000   22.0500000  
C 14.6120000   17.8750000   23.0720000  
C 13.8380000   16.9110000   23.7650000  
C 15.3660000   13.9080000   21.9370000  
C 16.2840000   14.2520000   20.8750000  
N 16.3930000   15.6930000   20.8540000  
O 16.6740000   12.0080000   20.2790000  
C 17.0250000   13.2860000   20.0120000  
O 17.8890000   13.6110000   19.2290000  
O 14.3420000   19.1390000   23.3920000  
O 12.8870000   17.3450000   24.6600000  
H 15.0230000   12.9140000   22.2620000  
H 16.0200000   12.0040000   21.0120000  
H 16.8890000   16.3200000   20.1820000  
H 14.9360000   19.7740000   22.8780000  
H 13.1960000   18.2130000   25.1040000  
C 16.1760000   18.6150000   21.2490000  
C 15.6020000   19.1030000   20.0560000  
C 16.2110000   20.1420000   19.4540000  
C 17.4590000   20.7710000   19.7550000  
C 18.1100000   20.1000000   20.8410000  
C 17.4840000   19.1140000   21.5990000  
C 14.3460000   18.7880000   19.3590000  
C 14.2990000   19.7120000   18.3070000  
N 15.4840000   20.4350000   18.3610000  
O 11.9760000   19.3440000   17.6540000  
C 13.2120000   19.8810000   17.3440000  
O 13.3710000   20.4270000   16.2660000  
O 19.3370000   20.6280000   21.2010000  
O 18.1050000   18.5400000   22.6780000  
H 13.6130000   18.0100000   19.5700000  
H 11.9740000   19.1090000   18.5780000  
H 15.6300000   21.2470000   17.7760000  
H 19.3850000   21.4270000   20.6110000  
H 18.8060000   19.0510000   23.0620000  
C 18.0230000   21.9220000   19.0370000  
C 17.7670000   23.2350000   19.3880000  
C 18.3180000   24.3500000   18.7950000  
C 19.1790000   24.1850000   17.6380000  
C 19.3550000   22.8660000   17.2050000  
C 18.8480000   21.7660000   17.8920000  
C 16.9430000   23.7330000   20.4530000  
C 16.9560000   25.1290000   20.4300000  
N 17.8790000   25.4860000   19.4120000  
O 15.7950000   25.4880000   22.5220000  
C 16.4110000   26.0880000   21.4170000  
O 16.5500000   27.2990000   21.3740000  
O 20.1680000   22.7640000   16.1170000  
O 19.1370000   20.4850000   17.3820000  
H 16.4460000   23.1480000   21.3140000  
H 15.7610000   24.5740000   22.2520000  
H 18.2620000   26.4380000   19.2720000  
H 20.1400000   21.8710000   15.8100000  
H 18.4950000   19.8260000   17.7650000  
H 19.6320000   25.0540000   17.1390000  
