76
001 
C 14.6170000   25.4520000   23.9330000  
C 13.9480000   25.3500000   25.1950000  
C 13.6760000   24.0920000   25.7010000  
C 14.1610000   22.9390000   25.1080000  
C 14.9220000   22.8700000   23.9630000  
C 15.2450000   24.1120000   23.2120000  
C 13.0990000   23.6970000   26.9580000  
C 13.2830000   22.3340000   27.1130000  
N 14.0000000   21.9310000   25.9840000  
O 12.2640000   22.2000000   29.2550000  
C 12.8910000   21.5190000   28.2690000  
O 13.1790000   20.3410000   28.2810000  
O 15.8600000   24.1070000   22.1640000  
O 14.8120000   26.5370000   23.4300000  
H 13.7080000   26.3130000   25.7030000  
H 12.6140000   24.4230000   27.7030000  
H 12.3970000   23.1270000   29.0340000  
H 14.4210000   21.0030000   25.8430000  
C 15.2860000   21.4170000   23.4980000  
C 14.3670000   20.7000000   22.7540000  
C 14.7270000   19.5190000   22.2010000  
C 15.9900000   18.9110000   22.4080000  
C 16.9560000   19.6140000   23.1550000  
C 16.5690000   20.8480000   23.7140000  
C 13.1550000   21.1470000   22.0620000  
C 12.9790000   20.2280000   21.0430000  
N 13.9240000   19.2020000   21.1780000  
O 11.2890000   21.5930000   20.0010000  
C 12.0760000   20.4840000   19.8840000  
O 12.1240000   19.8130000   18.8350000  
O 18.2000000   19.0940000   23.3920000  
O 17.4950000   21.5400000   24.4370000  
H 12.6940000   22.1090000   22.1510000  
H 11.5100000   21.9010000   20.9270000  
H 14.0800000   18.3460000   20.6710000  
H 18.1210000   18.1900000   23.2820000  
H 18.3040000   20.9880000   24.6310000  
C 16.3640000   17.5950000   21.7180000  
C 16.2440000   17.4330000   20.2600000  
C 16.4120000   16.2060000   19.6550000  
C 16.6820000   15.0560000   20.3690000  
C 16.8920000   15.2150000   21.8050000  
C 16.6720000   16.4620000   22.4470000  
C 16.0780000   18.3650000   19.1580000  
C 15.9130000   17.6380000   18.0020000  
N 16.2140000   16.3140000   18.3070000  
O 15.0700000   19.3650000   16.6070000  
C 15.6820000   18.1720000   16.6320000  
O 15.9160000   17.6070000   15.6040000  
O 17.1860000   14.1560000   22.5630000  
O 16.6460000   16.3870000   23.8230000  
H 16.1220000   19.4700000   19.1580000  
H 14.9130000   19.5830000   17.5060000  
H 16.2240000   15.5960000   17.5750000  
H 17.2650000   13.3200000   22.1030000  
H 16.7850000   15.4500000   24.0540000  
C 16.8190000   13.7910000   19.6720000  
C 18.0520000   13.0480000   19.6340000  
C 18.2100000   12.0000000   18.8030000  
C 17.1010000   11.3450000   18.2220000  
C 15.8370000   11.9370000   18.2980000  
C 15.7140000   13.0530000   19.1480000  
C 19.3200000   13.3400000   20.2000000  
C 20.1800000   12.4310000   19.6870000  
N 19.5140000   11.4940000   18.8600000  
O 21.9500000   13.4960000   20.7550000  
C 21.5940000   12.4410000   20.0030000  
O 22.4240000   11.6570000   19.6670000  
O 14.6910000   11.2650000   17.8830000  
O 14.5180000   13.5820000   19.4460000  
H 19.5500000   14.1940000   20.7860000  
H 21.1660000   14.0360000   20.9810000  
H 19.9160000   10.6350000   18.5150000  
H 14.0090000   11.9410000   17.9500000  
H 14.6810000   14.3170000   20.0870000  
H 17.0990000   10.3920000   17.7130000  
