76
001 
C 18.8820000   18.8760000   28.5770000  
C 17.8860000   18.1420000   29.4000000  
C 16.9040000   17.3690000   28.8840000  
C 16.5370000   17.4830000   27.5720000  
C 17.1700000   18.2480000   26.6710000  
C 18.3950000   19.0080000   27.0430000  
C 15.9180000   16.5580000   29.4660000  
C 15.0420000   16.1210000   28.4410000  
N 15.4270000   16.7680000   27.3010000  
O 13.8170000   14.5090000   29.7710000  
C 13.9240000   15.1370000   28.5710000  
O 13.1790000   14.8110000   27.6410000  
O 18.9770000   19.7140000   26.2370000  
O 19.8570000   19.4270000   29.0270000  
H 18.0260000   18.2590000   30.4230000  
H 15.9790000   16.1360000   30.4660000  
H 14.5510000   14.8330000   30.2810000  
H 14.9690000   16.7050000   26.4100000  
C 16.5950000   18.1680000   25.3240000  
C 15.6540000   19.0570000   24.8890000  
C 15.2800000   19.0900000   23.5120000  
C 15.7940000   18.2750000   22.4900000  
C 16.7250000   17.3170000   22.9710000  
C 17.1120000   17.2500000   24.3470000  
C 15.1650000   20.2590000   25.4980000  
C 14.3850000   20.8820000   24.4780000  
N 14.5740000   20.2270000   23.1910000  
O 13.6590000   22.4840000   26.0060000  
C 13.6470000   22.0880000   24.6960000  
O 13.0930000   22.7610000   23.8280000  
O 17.2430000   16.3630000   22.1880000  
O 18.0340000   16.3550000   24.7310000  
H 15.3570000   20.6280000   26.5220000  
H 14.1430000   21.7320000   26.3950000  
H 14.0660000   20.3800000   22.2820000  
H 16.7080000   16.3900000   21.3920000  
H 18.1890000   15.7880000   23.9700000  
C 15.3410000   18.3440000   21.0280000  
C 16.2970000   18.6740000   20.0720000  
C 15.8990000   18.6330000   18.8090000  
C 14.6150000   18.3940000   18.3290000  
C 13.6270000   18.1540000   19.3180000  
C 14.0040000   18.0570000   20.6710000  
C 17.7210000   18.7980000   20.0470000  
C 18.1160000   19.0440000   18.7150000  
N 16.9460000   18.9680000   17.9370000  
O 20.4840000   19.2140000   19.0880000  
C 19.4390000   19.3240000   18.1870000  
O 19.6430000   19.7210000   17.0570000  
O 12.2750000   18.0040000   19.0420000  
O 13.0250000   17.8880000   21.5950000  
H 18.3890000   18.7850000   20.9140000  
H 20.0870000   18.9670000   19.8700000  
H 16.7840000   19.0980000   16.9080000  
H 12.1100000   18.0620000   18.0870000  
H 12.3700000   17.2860000   21.1070000  
C 14.2800000   18.5460000   16.9170000  
C 14.9030000   17.6900000   15.9830000  
C 14.7530000   17.8780000   14.6160000  
C 14.0470000   18.9430000   14.0800000  
C 13.4970000   19.9150000   14.9310000  
C 13.6380000   19.7370000   16.3760000  
C 15.6910000   16.4940000   16.1810000  
C 16.1020000   16.1190000   14.9000000  
N 15.5360000   17.0110000   13.9500000  
O 17.1420000   14.0760000   15.4210000  
C 16.8950000   14.9490000   14.4240000  
O 17.1420000   14.7390000   13.2540000  
O 12.7710000   20.9110000   14.4110000  
O 13.0360000   20.6520000   17.2200000  
H 16.0120000   16.0400000   17.1110000  
H 16.7820000   14.5760000   16.1210000  
H 15.8010000   16.9590000   12.9720000  
H 12.5120000   21.5910000   15.0790000  
H 13.0050000   20.1840000   18.0920000  
H 14.0650000   19.0930000   12.9800000  
