76
001 
C 10.4410000   18.7750000   16.5160000  
C 10.0440000   20.1680000   16.4980000  
C 10.5760000   20.9880000   17.4290000  
C 11.6450000   20.5800000   18.2850000  
C 12.0520000   19.2780000   18.3880000  
C 11.5150000   18.2660000   17.5230000  
C 10.3780000   22.3660000   17.6550000  
C 11.1540000   22.7700000   18.7730000  
N 11.9260000   21.6360000   19.1390000  
O 10.5430000   25.0860000   18.4820000  
C 11.2840000   24.2120000   19.1610000  
O 12.1420000   24.5870000   19.9300000  
O 11.9440000   17.1280000   17.5340000  
O  9.9840000   18.0570000   15.6570000  
H  9.3230000   20.4880000   15.7380000  
H  9.6840000   22.9710000   17.1480000  
H  9.9300000   24.5500000   17.9170000  
H 12.5610000   21.6600000   19.9080000  
C 13.0280000   19.0970000   19.4430000  
C 12.7420000   18.4790000   20.6270000  
C 13.6910000   18.4330000   21.6190000  
C 15.0530000   18.7100000   21.4020000  
C 15.4120000   19.1460000   20.0560000  
C 14.3690000   19.4420000   19.1050000  
C 11.4470000   18.1820000   21.2760000  
C 11.7260000   17.7320000   22.5690000  
N 13.1520000   17.9270000   22.7620000  
O  9.4430000   17.4400000   23.2470000  
C 10.8060000   17.4520000   23.6230000  
O 11.1830000   17.1020000   24.7240000  
O 16.7630000   19.3360000   19.7680000  
O 14.5980000   20.1170000   17.9350000  
H 10.4930000   18.3240000   20.7780000  
H  9.3630000   17.9030000   22.3960000  
H 13.6260000   17.8150000   23.6520000  
H 17.1740000   18.8720000   20.4460000  
H 13.7340000   20.4830000   17.6200000  
C 16.1380000   18.3890000   22.4170000  
C 16.6090000   17.0590000   22.6110000  
C 17.7480000   16.8310000   23.3410000  
C 18.5540000   17.8600000   23.9220000  
C 18.1130000   19.2400000   23.7490000  
C 16.8680000   19.4260000   23.0610000  
C 16.3730000   15.8020000   21.9690000  
C 17.3570000   14.8800000   22.4200000  
N 18.1720000   15.5550000   23.3490000  
O 16.5820000   13.0520000   20.9650000  
C 17.4960000   13.4860000   21.9460000  
O 18.2870000   12.7400000   22.4440000  
O 18.8080000   20.2760000   24.2460000  
O 16.5940000   20.7320000   22.7480000  
H 15.4700000   15.6840000   21.2970000  
H 15.9730000   13.7490000   20.8070000  
H 18.8150000   15.1660000   24.0980000  
H 19.4540000   19.9380000   24.8910000  
H 17.3960000   21.2400000   23.0200000  
C 19.7590000   17.6130000   24.7650000  
C 20.8810000   16.8600000   24.2760000  
C 21.9640000   16.7230000   25.1300000  
C 21.9390000   17.0000000   26.5350000  
C 20.7870000   17.6140000   27.0660000  
C 19.7110000   17.9400000   26.1760000  
C 21.2260000   16.3340000   22.9720000  
C 22.5070000   15.8250000   23.0620000  
N 22.9470000   16.0500000   24.4170000  
O 22.6260000   14.8270000   20.9770000  
C 23.3060000   15.0900000   22.1260000  
O 24.5020000   14.7350000   22.3430000  
O 20.7500000   18.0510000   28.3610000  
O 18.6420000   18.6370000   26.7010000  
H 20.5920000   16.3260000   22.1770000  
H 21.7560000   15.2960000   21.1390000  
H 23.7910000   15.7140000   24.8260000  
H 19.9110000   18.3790000   28.5720000  
H 17.9200000   18.4730000   26.1150000  
H 22.8580000   16.9650000   27.0960000  
