76
001 
C  9.6590000   22.5240000   19.2440000  
C 10.1780000   23.8700000   19.6500000  
C 11.4540000   23.9390000   20.1000000  
C 12.2620000   22.8390000   20.3670000  
C 11.9470000   21.5390000   20.0300000  
C 10.5650000   21.2370000   19.4110000  
C 12.3220000   25.0790000   20.2710000  
C 13.6180000   24.6320000   20.6770000  
N 13.5010000   23.2430000   20.7020000  
O 14.7780000   26.7560000   20.6900000  
C 14.8450000   25.3790000   20.9560000  
O 15.8700000   24.8740000   21.4290000  
O 10.2610000   20.1410000   18.9780000  
O  8.5380000   22.4650000   18.8220000  
H  9.5670000   24.7150000   19.4610000  
H 12.0260000   26.0900000   20.0620000  
H 14.0050000   26.8510000   20.1070000  
H 14.3010000   22.6200000   21.0380000  
C 13.0050000   20.5220000   20.3340000  
C 13.1260000   20.1180000   21.6730000  
C 14.1100000   19.2510000   22.0500000  
C 15.0820000   18.6330000   21.1940000  
C 14.9920000   19.1030000   19.9030000  
C 13.9970000   20.0160000   19.4440000  
C 12.2830000   20.2160000   22.8140000  
C 12.8220000   19.5350000   23.8840000  
N 14.0640000   19.0120000   23.4370000  
O 11.2430000   20.0740000   25.6050000  
C 12.3570000   19.3500000   25.3180000  
O 13.0260000   18.7970000   26.1600000  
O 16.0120000   18.7420000   19.0630000  
O 14.0790000   20.3720000   18.1560000  
H 11.2780000   20.7770000   22.8640000  
H 10.8690000   20.4230000   24.7570000  
H 14.7650000   18.6170000   24.0230000  
H 16.5580000   18.1720000   19.5800000  
H 14.8940000   20.0130000   17.8100000  
C 16.1720000   17.6830000   21.6940000  
C 15.9760000   16.3340000   21.3900000  
C 16.8060000   15.4040000   21.9540000  
C 17.9820000   15.7310000   22.7470000  
C 18.2020000   17.0580000   22.9890000  
C 17.3110000   18.0520000   22.4640000  
C 15.0730000   15.6130000   20.5270000  
C 15.4810000   14.2560000   20.5500000  
N 16.5790000   14.1550000   21.4910000  
O 13.9630000   13.4500000   18.8810000  
C 14.8860000   13.1620000   19.7600000  
O 15.1130000   12.0070000   20.0020000  
O 19.2170000   17.3630000   23.7680000  
O 17.5660000   19.3470000   22.8590000  
H 14.2600000   16.0870000   20.0470000  
H 13.8920000   14.3600000   18.8040000  
H 16.9090000   13.2650000   21.7700000  
H 19.8260000   16.6110000   23.7250000  
H 18.5220000   19.3480000   23.1750000  
C 18.9260000   14.6590000   23.2870000  
C 20.3040000   14.7620000   22.9940000  
C 21.2370000   13.8240000   23.3520000  
C 20.9020000   12.7600000   24.2090000  
C 19.5910000   12.5950000   24.5960000  
C 18.6240000   13.5810000   24.1420000  
C 20.9990000   15.6290000   21.9850000  
C 22.3510000   15.2400000   21.9560000  
N 22.4560000   14.1330000   22.7880000  
O 23.2510000   16.8350000   20.4340000  
C 23.5360000   15.8100000   21.2660000  
O 24.6180000   15.2690000   21.3840000  
O 19.1570000   11.6310000   25.4200000  
O 17.3270000   13.3340000   24.4420000  
H 20.6320000   16.4060000   21.2990000  
H 22.3440000   17.1060000   20.7550000  
H 23.3190000   13.6890000   22.8820000  
H 18.2990000   11.9090000   25.7200000  
H 16.7050000   14.0610000   24.1560000  
H 21.6990000   12.0830000   24.3900000  
