76
001 
C 17.7670000   22.6090000   27.7390000  
C 17.1250000   21.7260000   28.7990000  
C 16.6100000   20.4620000   28.5110000  
C 16.6600000   19.9820000   27.2150000  
C 16.9710000   20.7280000   26.1260000  
C 17.6240000   22.0250000   26.2480000  
C 15.8430000   19.5130000   29.2820000  
C 15.3310000   18.5280000   28.4040000  
N 15.8050000   18.9220000   27.1390000  
O 14.4260000   16.9970000   29.9360000  
C 14.5690000   17.2920000   28.6510000  
O 14.0930000   16.6440000   27.7150000  
O 17.9740000   22.6850000   25.3110000  
O 18.2430000   23.6600000   28.0360000  
H 17.1600000   22.0830000   29.7350000  
H 15.5350000   19.6560000   30.3310000  
H 14.9470000   17.5340000   30.4490000  
H 15.6430000   18.4600000   26.2840000  
C 16.8160000   20.0810000   24.8720000  
C 15.5960000   20.3150000   24.1840000  
C 15.3240000   19.6100000   23.0910000  
C 16.2060000   18.6820000   22.4700000  
C 17.4080000   18.4490000   23.1770000  
C 17.6760000   19.0980000   24.4150000  
C 14.5080000   21.2690000   24.3510000  
C 13.6060000   20.9800000   23.3290000  
N 14.1860000   20.0090000   22.4960000  
O 11.6990000   22.1380000   24.1800000  
C 12.2230000   21.3430000   23.2370000  
O 11.5270000   20.8630000   22.3680000  
O 18.2060000   17.4470000   22.6450000  
O 18.8080000   18.7150000   25.1510000  
H 14.3950000   21.9570000   25.1890000  
H 12.5370000   22.2780000   24.6540000  
H 13.6450000   19.5080000   21.8200000  
H 17.5730000   17.0970000   22.0100000  
H 19.2650000   17.9780000   24.6830000  
C 15.8250000   17.9070000   21.2780000  
C 15.7810000   18.6050000   20.0490000  
C 15.5980000   17.9150000   18.9070000  
C 15.4020000   16.5100000   18.8310000  
C 15.3530000   15.7340000   20.0420000  
C 15.5730000   16.5040000   21.2800000  
C 16.0390000   19.9930000   19.6430000  
C 15.9080000   20.0310000   18.2740000  
N 15.5770000   18.7360000   17.8100000  
O 16.4490000   22.2080000   18.0600000  
C 16.2930000   21.0750000   17.4010000  
O 16.3150000   20.9880000   16.1930000  
O 15.0430000   14.4550000   20.0530000  
O 15.5550000   15.7600000   22.4250000  
H 16.2180000   20.8110000   20.3690000  
H 16.6290000   21.9440000   18.9740000  
H 15.3110000   18.5820000   16.8400000  
H 15.1750000   14.1170000   19.1190000  
H 15.1120000   14.9420000   22.0830000  
C 15.0050000   15.8950000   17.5620000  
C 15.9880000   15.2270000   16.7690000  
C 15.5310000   14.4660000   15.7060000  
C 14.2270000   14.4060000   15.2270000  
C 13.2910000   15.1470000   15.9350000  
C 13.6640000   15.8600000   17.1370000  
C 17.4480000   14.9700000   16.8610000  
C 17.8060000   14.0860000   15.8460000  
N 16.6050000   13.8770000   15.1500000  
O 20.0970000   13.8010000   16.1720000  
C 19.0740000   13.4790000   15.4230000  
O 19.1570000   12.7370000   14.4730000  
O 11.9500000   15.0290000   15.6060000  
O 12.6380000   16.4620000   17.8980000  
H 18.0370000   15.4070000   17.6470000  
H 19.6580000   14.4430000   16.8630000  
H 16.5170000   13.6030000   14.1400000  
H 11.4800000   15.3970000   16.4640000  
H 13.0620000   16.7480000   18.7510000  
H 14.0010000   13.7830000   14.3570000  
