76
001 
C 10.2830000   13.9030000   19.2580000  
C  9.7030000   14.5330000   17.9820000  
C 10.3540000   15.6290000   17.4460000  
C 11.4410000   16.2590000   18.1060000  
C 11.9980000   15.8520000   19.3070000  
C 11.4730000   14.6950000   20.0510000  
C 10.1150000   16.3160000   16.2300000  
C 11.0680000   17.3370000   16.1540000  
N 11.8660000   17.3400000   17.3220000  
O 10.4020000   18.3380000   14.1030000  
C 11.2770000   18.3900000   15.1020000  
O 12.2180000   19.1800000   15.1470000  
O 11.8940000   14.3770000   21.1510000  
O  9.9280000   12.8510000   19.7160000  
H  8.8930000   14.0720000   17.4510000  
H  9.4430000   16.0640000   15.4310000  
H  9.7380000   17.7120000   14.4760000  
H 12.7070000   17.8610000   17.4740000  
C 13.2090000   16.6060000   19.7950000  
C 12.9710000   17.6610000   20.6870000  
C 13.9980000   18.4360000   21.0720000  
C 15.3620000   18.2270000   20.6840000  
C 15.5670000   17.1200000   19.8030000  
C 14.4970000   16.3530000   19.3200000  
C 11.7760000   18.1760000   21.3690000  
C 12.3050000   19.2240000   22.2200000  
N 13.6710000   19.3020000   22.0610000  
O 10.1420000   19.9030000   22.8130000  
C 11.4280000   20.0680000   23.0720000  
O 11.9440000   20.9430000   23.7850000  
O 16.8350000   16.9000000   19.3280000  
O 14.7070000   15.3660000   18.3800000  
H 10.7700000   17.8280000   21.2280000  
H 10.1400000   19.2510000   22.0810000  
H 14.3020000   19.9380000   22.4530000  
H 17.3250000   17.4170000   19.9650000  
H 13.9100000   14.8330000   18.2920000  
C 16.5180000   18.9520000   21.3950000  
C 16.7070000   18.5810000   22.8110000  
C 17.6870000   19.2110000   23.5440000  
C 18.6330000   20.0810000   22.9640000  
C 18.4410000   20.4010000   21.6440000  
C 17.4790000   19.8360000   20.8070000  
C 16.0350000   17.7270000   23.7630000  
C 16.7300000   17.8650000   25.0090000  
N 17.7350000   18.8300000   24.8850000  
O 15.4650000   16.1340000   26.0600000  
C 16.4870000   17.0540000   26.1720000  
O 17.2160000   16.9960000   27.1510000  
O 19.3330000   21.3090000   21.1020000  
O 17.3330000   20.1710000   19.4790000  
H 15.3180000   16.9780000   23.5600000  
H 15.0500000   16.2250000   25.1690000  
H 18.4650000   19.1930000   25.5880000  
H 20.2290000   21.3200000   21.5750000  
H 18.1490000   20.6130000   19.2500000  
C 19.7810000   20.6330000   23.7870000  
C 20.7530000   19.8100000   24.4310000  
C 21.8860000   20.2070000   25.1810000  
C 22.0420000   21.5410000   25.3640000  
C 21.1300000   22.4130000   24.7900000  
C 19.9660000   22.0450000   24.0260000  
C 20.8690000   18.4210000   24.3720000  
C 22.0390000   18.0430000   24.9390000  
N 22.7660000   19.1690000   25.3370000  
O 21.7010000   15.8680000   24.5450000  
C 22.6130000   16.7150000   25.0000000  
O 23.7650000   16.4220000   25.3380000  
O 21.4540000   23.7410000   24.9630000  
O 19.1520000   23.0680000   23.4550000  
H 20.0730000   17.7190000   24.0280000  
H 20.8780000   16.3160000   24.3350000  
H 23.7230000   19.2440000   25.7570000  
H 20.8020000   24.2590000   24.6170000  
H 18.4790000   22.6220000   22.8650000  
H 22.9610000   21.9250000   25.7880000  
