76
001 
C 18.7690000   14.8640000   27.3780000  
C 17.8000000   14.7340000   28.4340000  
C 16.4840000   15.0690000   28.2540000  
C 16.0490000   15.5570000   27.0390000  
C 16.8260000   15.6710000   25.9380000  
C 18.2660000   15.4220000   26.0080000  
C 15.3740000   15.3000000   29.1690000  
C 14.3010000   15.7810000   28.4230000  
N 14.7750000   15.9730000   27.1670000  
O 12.5150000   15.7440000   30.1350000  
C 12.8930000   16.0130000   28.8630000  
O 12.1410000   16.4680000   28.0180000  
O 19.0000000   15.5580000   25.0650000  
O 19.9400000   14.5080000   27.4680000  
H 18.2720000   14.5670000   29.3300000  
H 15.4050000   14.9540000   30.1970000  
H 13.3620000   15.4390000   30.6320000  
H 14.2120000   16.2360000   26.3750000  
C 16.1750000   16.2190000   24.7490000  
C 15.9200000   17.5820000   24.7190000  
C 15.5090000   18.2370000   23.5280000  
C 15.3730000   17.5570000   22.2870000  
C 15.8410000   16.2280000   22.2930000  
C 16.1390000   15.5740000   23.4980000  
C 16.0110000   18.6670000   25.6170000  
C 15.8580000   19.8860000   24.9410000  
N 15.4760000   19.6260000   23.5920000  
O 16.2070000   21.1550000   26.9890000  
C 15.8880000   21.1840000   25.6300000  
O 15.6200000   22.2240000   25.0310000  
O 15.7670000   15.5180000   21.1720000  
O 16.3310000   14.2290000   23.5820000  
H 16.3490000   18.6250000   26.6540000  
H 16.3570000   20.2180000   27.1310000  
H 15.2050000   20.2890000   22.8590000  
H 15.5340000   16.2040000   20.4840000  
H 16.4670000   13.7930000   22.6940000  
C 15.2760000   18.4130000   21.0700000  
C 16.3560000   18.5160000   20.2310000  
C 16.2420000   19.1170000   19.0290000  
C 15.1170000   19.9030000   18.6200000  
C 13.9480000   19.8250000   19.4530000  
C 14.0730000   19.1200000   20.7070000  
C 17.7290000   18.2460000   20.4170000  
C 18.3790000   18.5210000   19.2300000  
N 17.4540000   19.1130000   18.3390000  
O 20.5540000   17.7790000   19.8660000  
C 19.8730000   18.4720000   18.9630000  
O 20.4430000   19.1210000   18.1040000  
O 12.7590000   20.5460000   19.1890000  
O 12.9700000   19.1100000   21.4740000  
H 18.1550000   17.9440000   21.3100000  
H 19.8830000   17.4470000   20.4330000  
H 17.5310000   19.6790000   17.4200000  
H 12.6330000   20.8350000   18.3050000  
H 12.3380000   19.7410000   21.0360000  
C 14.9930000   20.7220000   17.3460000  
C 15.0240000   20.0200000   16.1050000  
C 14.9120000   20.7760000   14.9510000  
C 14.7490000   22.1660000   14.9410000  
C 14.6410000   22.8210000   16.1510000  
C 14.8090000   22.1070000   17.3760000  
C 14.9130000   18.5740000   15.7080000  
C 14.9200000   18.5740000   14.3160000  
N 14.8820000   19.9060000   13.8910000  
O 14.8620000   16.2330000   14.0340000  
C 14.8500000   17.4300000   13.4690000  
O 14.7950000   17.6050000   12.2600000  
O 14.2730000   24.1630000   16.1320000  
O 14.7860000   22.8100000   18.5050000  
H 14.8550000   17.8140000   16.3920000  
H 14.8280000   16.4540000   15.0020000  
H 14.6290000   20.1870000   12.9630000  
H 14.5530000   24.4920000   16.9830000  
H 15.0160000   22.2180000   19.2300000  
H 14.6720000   22.8390000   14.0830000  
