76
001 
C 11.1510000   12.7890000   23.4820000  
C 10.9150000   12.0180000   22.2360000  
C 11.6110000   12.3330000   21.1060000  
C 12.5150000   13.3350000   20.9900000  
C 12.9250000   14.1360000   22.0550000  
C 12.2580000   13.9600000   23.3630000  
C 11.4800000   11.8160000   19.7440000  
C 12.2920000   12.5480000   18.8890000  
N 12.9080000   13.4940000   19.6710000  
O 11.5380000   11.5280000   16.8570000  
C 12.4210000   12.3290000   17.4350000  
O 13.2850000   12.8450000   16.8020000  
O 12.5350000   14.6720000   24.3120000  
O 10.6800000   12.4920000   24.5470000  
H 10.2790000   11.1210000   22.1700000  
H 10.8730000   10.9160000   19.4950000  
H 10.9960000   11.1370000   17.6020000  
H 13.3450000   14.3420000   19.2750000  
C 13.9140000   15.1800000   21.7330000  
C 13.6280000   16.2610000   20.8840000  
C 14.5250000   17.2930000   20.8010000  
C 15.8130000   17.4000000   21.4180000  
C 16.1250000   16.2750000   22.2900000  
C 15.2060000   15.2000000   22.3950000  
C 12.5770000   16.6130000   19.9820000  
C 13.0070000   17.7320000   19.2180000  
N 14.2570000   18.1400000   19.7200000  
O 11.0410000   17.8200000   17.7700000  
C 12.2210000   18.3760000   18.0780000  
O 12.6320000   19.3250000   17.3920000  
O 17.3380000   16.2120000   22.8770000  
O 15.5750000   14.2500000   23.2950000  
H 11.6370000   16.1080000   19.9290000  
H 11.1430000   16.8760000   18.0300000  
H 14.5830000   19.0770000   19.6280000  
H 17.9350000   16.8600000   22.5520000  
H 14.9180000   13.5690000   23.3300000  
C 16.6970000   18.5830000   21.2810000  
C 16.2710000   19.7640000   21.8830000  
C 17.1130000   20.8180000   22.0130000  
C 18.4050000   20.8700000   21.5460000  
C 18.9280000   19.6900000   20.9580000  
C 18.0880000   18.4980000   20.9230000  
C 15.1290000   20.0960000   22.6900000  
C 15.3070000   21.4300000   23.0740000  
N 16.5530000   21.8920000   22.7270000  
O 13.1260000   21.7970000   24.0740000  
C 14.3560000   22.2510000   23.8600000  
O 14.7770000   23.3150000   24.2660000  
O 20.2310000   19.6260000   20.4140000  
O 18.5930000   17.3140000   20.4030000  
H 14.2630000   19.4810000   23.0650000  
H 13.1040000   20.8920000   23.7570000  
H 16.9910000   22.7970000   22.8610000  
H 20.6860000   20.4890000   20.4410000  
H 19.2720000   17.4520000   19.7080000  
C 19.1080000   22.1370000   21.7550000  
C 19.9180000   22.2200000   22.9180000  
C 20.5240000   23.4050000   23.3060000  
C 20.3320000   24.5970000   22.5950000  
C 19.5770000   24.4780000   21.3690000  
C 18.9640000   23.3080000   20.9020000  
C 20.3350000   21.2310000   23.8990000  
C 21.1660000   21.8790000   24.8310000  
N 21.2740000   23.1920000   24.4760000  
O 21.4300000   19.8860000   26.0310000  
C 21.8010000   21.1810000   25.8950000  
O 22.5470000   21.6270000   26.7400000  
O 19.5930000   25.5740000   20.5790000  
O 18.0700000   23.3710000   19.8570000  
H 20.0920000   20.2060000   23.7870000  
H 20.7790000   19.7730000   25.3290000  
H 21.7520000   23.8720000   25.0450000  
H 19.2630000   25.3550000   19.7730000  
H 17.4760000   22.6380000   19.9560000  
H 20.8450000   25.5460000   22.8580000  
