76
001 
C  9.2010000   14.7390000   19.4650000  
C  9.5280000   14.5770000   18.0440000  
C 10.7640000   14.9370000   17.5080000  
C 11.7200000   15.6480000   18.2760000  
C 11.5780000   15.8070000   19.6310000  
C 10.3460000   15.3970000   20.3000000  
C 11.2970000   15.0030000   16.1640000  
C 12.5200000   15.6240000   16.1580000  
N 12.7190000   15.9470000   17.5150000  
O 12.8850000   15.2450000   13.9100000  
C 13.3650000   15.8320000   15.0110000  
O 14.3990000   16.4090000   15.0060000  
O 10.2160000   15.3550000   21.4970000  
O  8.1920000   14.3180000   19.9580000  
H  8.8100000   14.1100000   17.4220000  
H 10.7910000   14.5720000   15.2700000  
H 11.9730000   15.0200000   14.1900000  
H 13.5640000   16.4070000   17.8910000  
C 12.7690000   16.2710000   20.2950000  
C 12.6970000   17.4870000   20.9120000  
C 13.8300000   18.0260000   21.4920000  
C 15.1530000   17.4320000   21.4630000  
C 15.2880000   16.1430000   20.8090000  
C 14.0380000   15.5540000   20.3160000  
C 11.6270000   18.4170000   21.0090000  
C 12.1390000   19.5470000   21.6260000  
N 13.4910000   19.3240000   21.9840000  
O 10.1390000   20.7620000   21.4510000  
C 11.3970000   20.7450000   22.0490000  
O 11.8230000   21.6350000   22.8330000  
O 16.5180000   15.4940000   20.8420000  
O 14.1100000   14.3330000   19.7850000  
H 10.6090000   18.3340000   20.6800000  
H  9.9830000   19.8330000   21.2180000  
H 14.0480000   19.9350000   22.5340000  
H 17.0850000   16.3060000   20.6550000  
H 13.2990000   14.1450000   19.2940000  
C 16.3740000   18.1450000   22.0700000  
C 16.4640000   18.5350000   23.4270000  
C 17.4280000   19.3490000   23.8430000  
C 18.5220000   19.8400000   23.1180000  
C 18.5180000   19.3340000   21.7910000  
C 17.4220000   18.5460000   21.2410000  
C 15.5660000   18.3210000   24.5950000  
C 16.1520000   18.9810000   25.6300000  
N 17.3000000   19.6580000   25.2300000  
O 14.6500000   18.1750000   27.1720000  
C 15.6200000   19.0090000   26.9770000  
O 16.1170000   19.6420000   27.8500000  
O 19.4580000   19.8150000   20.9260000  
O 17.3820000   18.2160000   19.9510000  
H 14.6290000   17.8150000   24.6380000  
H 14.5040000   17.7690000   26.2780000  
H 17.9910000   20.1350000   25.8470000  
H 20.2850000   20.1100000   21.2930000  
H 17.6260000   19.0140000   19.4320000  
C 19.6400000   20.7160000   23.6830000  
C 21.0270000   20.3320000   23.6930000  
C 22.0140000   21.0360000   24.3440000  
C 21.6610000   22.0520000   25.2280000  
C 20.3460000   22.5790000   25.2300000  
C 19.3460000   21.8490000   24.5110000  
C 21.6800000   19.1640000   23.0900000  
C 23.0470000   19.3830000   23.2700000  
N 23.2350000   20.4390000   24.0870000  
O 23.8400000   17.7060000   21.7500000  
C 24.1350000   18.6420000   22.6420000  
O 25.3070000   19.0210000   22.7180000  
O 20.0270000   23.6030000   26.1240000  
O 18.0440000   22.3760000   24.4910000  
H 21.1510000   18.3710000   22.5300000  
H 22.9530000   17.6080000   22.0010000  
H 24.1220000   20.8600000   24.2480000  
H 19.1320000   23.6710000   26.2540000  
H 17.4430000   21.9880000   23.8080000  
H 22.4470000   22.5360000   25.8470000  
