76
001 
C 17.3610000   19.2530000   29.1900000  
C 16.0260000   19.1260000   29.7800000  
C 14.9940000   18.7480000   28.9580000  
C 15.1470000   18.3890000   27.6420000  
C 16.3440000   18.4480000   26.9780000  
C 17.5380000   18.9480000   27.6310000  
C 13.6720000   18.3730000   29.3570000  
C 13.0520000   17.7550000   28.2780000  
N 14.0030000   17.7800000   27.2110000  
O 11.1400000   17.2120000   29.4460000  
C 11.7430000   17.2100000   28.2380000  
O 11.3030000   16.7460000   27.2420000  
O 18.5840000   19.1170000   27.0150000  
O 18.4090000   19.5220000   29.7960000  
H 15.9000000   19.3780000   30.7820000  
H 13.4330000   18.5090000   30.4100000  
H 11.7560000   17.6790000   30.0400000  
H 13.8170000   17.3080000   26.3060000  
C 16.2540000   18.1600000   25.5360000  
C 16.3360000   19.2570000   24.6300000  
C 16.1240000   19.1060000   23.2910000  
C 15.7760000   17.9550000   22.6030000  
C 15.7950000   16.8000000   23.4870000  
C 15.9800000   16.9430000   24.8820000  
C 16.5910000   20.6430000   24.8290000  
C 16.5770000   21.2600000   23.5680000  
N 16.2670000   20.3160000   22.5890000  
O 17.5290000   23.4140000   24.4090000  
C 17.1450000   22.6530000   23.3080000  
O 17.3420000   23.1230000   22.1920000  
O 15.4010000   15.6690000   22.8350000  
O 15.8480000   15.7690000   25.5830000  
H 16.8410000   21.1470000   25.7590000  
H 17.3500000   22.9840000   25.2470000  
H 16.0120000   20.4260000   21.6370000  
H 15.3600000   15.9420000   21.8740000  
H 16.0280000   14.9890000   25.0700000  
C 15.7980000   17.9080000   21.0870000  
C 16.6520000   17.0650000   20.3560000  
C 16.7190000   17.0910000   18.9590000  
C 15.9630000   18.0340000   18.1950000  
C 15.0610000   18.8580000   18.9110000  
C 14.9500000   18.7910000   20.3100000  
C 17.7390000   16.1470000   20.7520000  
C 18.3460000   15.6300000   19.5820000  
N 17.6850000   16.2540000   18.4510000  
O 20.0070000   14.4340000   20.7730000  
C 19.5910000   14.7870000   19.5000000  
O 20.1720000   14.4680000   18.4600000  
O 14.2720000   19.7780000   18.3370000  
O 13.8510000   19.3670000   20.9220000  
H 18.0930000   15.9290000   21.7820000  
H 19.3390000   14.7620000   21.3280000  
H 17.9480000   16.1700000   17.4470000  
H 14.5640000   19.6570000   17.3420000  
H 13.5080000   20.1200000   20.3850000  
C 16.1280000   18.2320000   16.7320000  
C 15.0780000   18.0800000   15.7750000  
C 15.3680000   18.2250000   14.4300000  
C 16.6280000   18.6160000   13.9610000  
C 17.6250000   18.8890000   14.8590000  
C 17.3860000   18.6160000   16.1980000  
C 13.6760000   17.8660000   15.8880000  
C 13.1770000   17.8050000   14.5990000  
N 14.2220000   17.9980000   13.6730000  
O 10.9030000   17.2270000   15.2430000  
C 11.7590000   17.5540000   14.2190000  
O 11.3610000   17.6610000   13.1020000  
O 18.7890000   19.4200000   14.4480000  
O 18.3910000   18.9070000   17.0760000  
H 13.1190000   17.5680000   16.7200000  
H 11.4830000   17.0680000   16.0130000  
H 14.0990000   17.6740000   12.7020000  
H 19.2520000   19.5250000   15.2660000  
H 18.0630000   18.8700000   17.9820000  
H 16.7530000   18.7930000   12.9000000  
