76
001 
C 10.1710000   14.7810000   17.2920000  
C  9.5170000   16.0230000   17.0230000  
C 10.0450000   17.2490000   17.3140000  
C 11.3150000   17.3560000   17.8200000  
C 12.0480000   16.2720000   18.3070000  
C 11.5600000   14.8840000   18.0610000  
C  9.6540000   18.5910000   17.0580000  
C 10.5320000   19.4270000   17.7530000  
N 11.5600000   18.6590000   18.1690000  
O  9.3110000   21.4750000   17.4310000  
C 10.4240000   20.8880000   17.8880000  
O 11.3000000   21.5470000   18.3490000  
O 12.1620000   13.9170000   18.4890000  
O  9.6170000   13.7440000   16.9300000  
H  8.5370000   15.8980000   16.6030000  
H  8.7990000   18.8360000   16.5170000  
H  8.7970000   20.7190000   17.1060000  
H 12.3590000   19.0010000   18.7150000  
C 13.2260000   16.5650000   19.0650000  
C 13.1950000   17.0980000   20.3600000  
C 14.3210000   17.5900000   20.9700000  
C 15.6300000   17.4910000   20.5680000  
C 15.7400000   16.6830000   19.4050000  
C 14.5840000   16.2780000   18.6280000  
C 12.0170000   17.6270000   21.0040000  
C 12.4450000   18.5450000   21.9490000  
N 13.8740000   18.5080000   21.9140000  
O 10.2250000   19.2610000   22.6560000  
C 11.5720000   19.4620000   22.7360000  
O 12.0140000   20.3880000   23.3980000  
O 16.9740000   16.4220000   18.9200000  
O 14.9060000   15.6140000   17.4820000  
H 11.0080000   17.3840000   20.7310000  
H 10.0440000   18.6450000   21.9440000  
H 14.5310000   19.2010000   22.3000000  
H 17.5590000   17.1120000   19.0540000  
H 14.1200000   15.4240000   16.9490000  
C 16.7790000   18.0540000   21.3510000  
C 16.9210000   17.9000000   22.7270000  
C 17.9490000   18.4480000   23.3950000  
C 19.0150000   19.2200000   22.8370000  
C 18.8460000   19.4290000   21.4250000  
C 17.7650000   18.8260000   20.6920000  
C 16.0680000   17.3380000   23.7550000  
C 16.6670000   17.5630000   24.9850000  
N 17.8130000   18.3140000   24.7660000  
O 15.0010000   16.6580000   26.3830000  
C 16.1990000   17.1820000   26.3670000  
O 16.7900000   17.4380000   27.4520000  
O 19.7750000   20.1800000   20.7500000  
O 17.6270000   19.0920000   19.3450000  
H 15.0150000   17.1110000   23.7010000  
H 14.7270000   16.3550000   25.4720000  
H 18.4590000   18.7210000   25.4250000  
H 20.3420000   20.5470000   21.4930000  
H 18.3240000   19.7610000   19.2640000  
C 19.9180000   19.9350000   23.7690000  
C 21.0140000   19.2240000   24.3800000  
C 21.7340000   19.8550000   25.3540000  
C 21.5640000   21.1980000   25.6910000  
C 20.5180000   21.9210000   25.1320000  
C 19.6680000   21.2880000   24.1920000  
C 21.5490000   17.8560000   24.3310000  
C 22.5840000   17.6970000   25.2770000  
N 22.7150000   19.0050000   25.8430000  
O 23.0570000   15.4380000   24.9420000  
C 23.4460000   16.5260000   25.5720000  
O 24.4890000   16.5760000   26.2640000  
O 20.4580000   23.2960000   25.3850000  
O 18.7340000   22.0550000   23.6410000  
H 21.3870000   17.1590000   23.4580000  
H 22.1600000   15.6920000   24.6430000  
H 23.3310000   19.1610000   26.6730000  
H 20.1290000   23.8030000   24.6560000  
H 18.3300000   21.4310000   23.0130000  
H 22.3100000   21.7350000   26.3180000  
