76
001 
C 11.8390000   22.3640000   17.0300000  
C 11.0770000   23.3560000   17.7940000  
C 11.2260000   23.3690000   19.1350000  
C 12.0500000   22.4760000   19.8110000  
C 12.7250000   21.4040000   19.3000000  
C 12.6810000   21.2220000   17.7970000  
C 10.6520000   24.2010000   20.1750000  
C 11.1280000   23.8440000   21.3990000  
N 11.9560000   22.7720000   21.1470000  
O 10.0880000   25.5800000   22.6300000  
C 10.8310000   24.4450000   22.7360000  
O 11.2420000   23.9410000   23.7720000  
O 13.3320000   20.3940000   17.1610000  
O 11.7040000   22.3290000   15.7910000  
H 10.5470000   24.1280000   17.3220000  
H  9.9520000   24.9600000   19.8880000  
H  9.6650000   25.5600000   21.7310000  
H 12.4750000   22.2660000   21.8870000  
C 13.5250000   20.5450000   20.1690000  
C 13.0590000   19.2420000   20.4160000  
C 13.8470000   18.3470000   21.0610000  
C 15.1440000   18.6050000   21.6200000  
C 15.5120000   19.9690000   21.4630000  
C 14.7470000   20.9560000   20.7230000  
C 11.8390000   18.5810000   20.0230000  
C 12.0370000   17.2260000   20.3230000  
N 13.2520000   17.0690000   21.0400000  
O  9.9380000   16.5150000   19.3460000  
C 11.0700000   16.1510000   20.0000000  
O 11.2560000   14.9950000   20.3300000  
O 16.6900000   20.4410000   22.0700000  
O 15.2710000   22.1980000   20.5570000  
H 10.8980000   19.0320000   19.6610000  
H 10.0650000   17.4450000   19.1500000  
H 13.5320000   16.2940000   21.5750000  
H 17.0260000   19.5990000   22.4960000  
H 16.0730000   22.2610000   21.0930000  
C 15.9940000   17.6180000   22.3480000  
C 16.7680000   16.6520000   21.6690000  
C 17.5670000   15.8010000   22.3180000  
C 17.7290000   15.8330000   23.6920000  
C 16.8310000   16.6240000   24.4540000  
C 15.9860000   17.5620000   23.8020000  
C 17.0640000   16.4440000   20.2450000  
C 18.2040000   15.6580000   20.1750000  
N 18.5120000   15.2830000   21.4950000  
O 18.4320000   15.9380000   17.7880000  
C 18.9780000   15.3870000   18.8930000  
O 20.0650000   14.8190000   18.8560000  
O 16.8570000   16.5720000   25.8080000  
O 15.2450000   18.4010000   24.5200000  
H 16.4410000   16.8830000   19.4470000  
H 17.6580000   16.3600000   18.0780000  
H 19.2780000   14.6670000   21.6980000  
H 17.7180000   16.1480000   26.0800000  
H 15.1790000   18.1150000   25.4380000  
C 18.7730000   15.0450000   24.3830000  
C 20.1390000   15.2280000   24.0550000  
C 21.0910000   14.4600000   24.5830000  
C 20.7830000   13.3200000   25.4500000  
C 19.4380000   13.0810000   25.7150000  
C 18.4100000   13.9510000   25.2580000  
C 20.8300000   16.3480000   23.4800000  
C 22.1800000   16.2100000   23.6430000  
N 22.3650000   15.0160000   24.3620000  
O 22.7010000   18.1990000   22.5390000  
C 23.1640000   17.1080000   23.2370000  
O 24.3490000   16.9900000   23.5520000  
O 19.1240000   12.0030000   26.4270000  
O 17.1240000   13.5250000   25.4840000  
H 20.3790000   17.1840000   22.8890000  
H 21.7550000   18.0260000   22.4130000  
H 23.2720000   14.6560000   24.6620000  
H 18.1220000   11.9330000   26.3160000  
H 16.6010000   14.0560000   24.9220000  
H 21.6470000   12.8000000   25.9300000  
