76
001 
C 13.3100000   12.8340000   26.9210000  
C 14.1950000   13.2860000   27.9730000  
C 15.0490000   14.2800000   27.7040000  
C 15.2070000   14.9310000   26.4990000  
C 14.4760000   14.6740000   25.4120000  
C 13.4680000   13.5410000   25.4970000  
C 16.0790000   14.8170000   28.5530000  
C 16.7540000   15.8220000   27.8740000  
N 16.2220000   15.8810000   26.5930000  
O 18.1170000   16.6740000   29.5830000  
C 17.8340000   16.7010000   28.3160000  
O 18.1910000   17.5830000   27.5560000  
O 12.7150000   13.2150000   24.5780000  
O 12.4670000   11.9990000   27.0780000  
H 14.2840000   12.8140000   28.9570000  
H 16.1640000   14.5220000   29.5760000  
H 17.8150000   15.7740000   29.8280000  
H 16.4070000   16.5510000   25.8410000  
C 14.7230000   15.5590000   24.2750000  
C 15.8850000   15.4750000   23.5040000  
C 16.0860000   16.3320000   22.4390000  
C 15.2200000   17.4760000   22.1960000  
C 14.0160000   17.5110000   23.0320000  
C 13.7520000   16.5160000   23.9780000  
C 17.0190000   14.5850000   23.4490000  
C 17.8500000   14.9100000   22.3000000  
N 17.2790000   16.1110000   21.7970000  
O 19.5240000   13.1830000   22.7080000  
C 19.1540000   14.2520000   21.8970000  
O 19.8080000   14.5650000   20.9330000  
O 13.0160000   18.4310000   22.7360000  
O 12.5060000   16.4970000   24.5950000  
H 17.2520000   13.8220000   24.1950000  
H 18.7190000   13.0990000   23.2160000  
H 17.8430000   16.8050000   21.2860000  
H 13.3120000   19.0230000   22.0550000  
H 11.8800000   17.0660000   24.1110000  
C 15.5290000   18.4920000   21.1580000  
C 14.6270000   18.7620000   20.0900000  
C 15.0550000   19.6330000   19.0670000  
C 16.2340000   20.3530000   19.0170000  
C 17.1420000   20.0400000   20.0780000  
C 16.7650000   19.1760000   21.1620000  
C 13.3820000   18.2020000   19.6680000  
C 12.9820000   18.8190000   18.4310000  
N 14.0510000   19.6520000   18.1050000  
O 10.8420000   17.8470000   18.2530000  
C 11.7710000   18.5450000   17.5810000  
O 11.6900000   18.7520000   16.4270000  
O 18.4160000   20.5220000   19.9110000  
O 17.5900000   19.2100000   22.2000000  
H 12.8170000   17.4780000   20.2510000  
H 11.1260000   17.8430000   19.1710000  
H 13.9650000   20.2390000   17.3110000  
H 18.5080000   20.9940000   19.0950000  
H 18.2510000   19.9180000   22.2130000  
C 16.7080000   21.2010000   17.8250000  
C 16.6640000   22.6140000   17.9100000  
C 17.3920000   23.2860000   16.9710000  
C 18.0080000   22.7580000   15.8400000  
C 17.9140000   21.3700000   15.6740000  
C 17.2790000   20.5760000   16.6490000  
C 16.2540000   23.5920000   18.9360000  
C 16.5330000   24.8240000   18.3540000  
N 17.2400000   24.6520000   17.2110000  
O 15.6890000   26.0860000   20.0930000  
C 16.3850000   26.1770000   18.9780000  
O 16.8200000   27.2350000   18.5290000  
O 18.4830000   20.8580000   14.4360000  
O 17.1780000   19.2220000   16.4550000  
H 15.7980000   23.3560000   19.8430000  
H 15.3640000   25.1680000   20.0020000  
H 17.5860000   25.4620000   16.7340000  
H 18.7460000   19.8810000   14.5050000  
H 16.5780000   18.8270000   17.1420000  
H 18.4290000   23.4290000   15.0910000  
