76
001 
C 13.9760000   14.7880000   28.1580000  
C 14.7410000   15.4820000   29.1990000  
C 15.5020000   16.5340000   28.9160000  
C 15.5450000   17.0640000   27.6160000  
C 14.8300000   16.6550000   26.5000000  
C 13.9260000   15.5310000   26.7410000  
C 16.4400000   17.3620000   29.6810000  
C 17.0110000   18.3840000   28.8810000  
N 16.3500000   18.1850000   27.7030000  
O 18.7180000   19.0470000   30.2630000  
C 18.0560000   19.3380000   29.1370000  
O 18.3570000   20.2950000   28.4260000  
O 13.1340000   15.1780000   25.8530000  
O 13.2830000   13.8110000   28.4130000  
H 14.7690000   15.0590000   30.1890000  
H 16.6410000   17.1880000   30.7000000  
H 18.5120000   18.1450000   30.5140000  
H 16.4480000   18.8260000   26.9820000  
C 14.9810000   17.4340000   25.2590000  
C 16.1680000   17.3910000   24.5660000  
C 16.3310000   18.0080000   23.3480000  
C 15.2210000   18.6000000   22.6340000  
C 13.9930000   18.7370000   23.3490000  
C 13.8830000   18.1180000   24.6270000  
C 17.3410000   16.5760000   24.8440000  
C 18.1940000   16.7930000   23.7560000  
N 17.5050000   17.6480000   22.7980000  
O 20.2680000   15.9040000   24.6640000  
C 19.5760000   16.3220000   23.5530000  
O 20.2210000   16.5670000   22.5220000  
O 12.8670000   19.1280000   22.7240000  
O 12.6880000   18.2020000   25.3350000  
H 17.5020000   15.9620000   25.7110000  
H 19.6500000   15.6960000   25.4280000  
H 17.9700000   17.9870000   21.9400000  
H 13.1920000   19.5260000   21.9320000  
H 12.8480000   17.6840000   26.1590000  
C 15.3120000   19.2050000   21.2400000  
C 15.4260000   18.3560000   20.1620000  
C 15.6030000   18.7870000   18.8800000  
C 15.7440000   20.1260000   18.4960000  
C 15.4210000   21.0260000   19.5710000  
C 15.2050000   20.5880000   20.9140000  
C 15.5630000   16.8880000   20.1220000  
C 15.8230000   16.4760000   18.7980000  
N 15.7730000   17.7050000   17.9710000  
O 15.7840000   14.1240000   19.1520000  
C 15.9380000   15.1330000   18.2970000  
O 16.2260000   14.9650000   17.1620000  
O 15.5570000   22.3480000   19.2610000  
O 14.9220000   21.5720000   21.8090000  
H 15.5540000   16.1820000   20.9610000  
H 15.8640000   14.6190000   19.9910000  
H 15.9480000   17.7760000   16.9920000  
H 15.5220000   22.3700000   18.2630000  
H 15.0550000   22.3430000   21.3260000  
C 16.1080000   20.5290000   17.1060000  
C 15.3540000   20.1660000   15.9560000  
C 15.7110000   20.5050000   14.7140000  
C 16.9110000   21.1610000   14.3900000  
C 17.6540000   21.6850000   15.4810000  
C 17.2880000   21.3090000   16.8220000  
C 14.1220000   19.3640000   15.9080000  
C 13.9650000   19.0000000   14.5800000  
N 14.8980000   19.7560000   13.8610000  
O 12.2960000   17.3470000   14.9010000  
C 12.9570000   18.0740000   14.0160000  
O 12.6660000   17.9610000   12.8620000  
O 18.8460000   22.3200000   15.2450000  
O 18.0860000   21.6600000   17.9100000  
H 13.5960000   19.0130000   16.7390000  
H 12.7070000   17.5270000   15.7830000  
H 14.9770000   19.7620000   12.8690000  
H 19.4760000   22.0620000   15.9120000  
H 17.7580000   21.3470000   18.8270000  
H 17.2770000   21.3780000   13.4130000  
