76
001 
C 12.2420000   20.5320000   28.0990000  
C 13.3850000   20.7940000   29.0110000  
C 14.6340000   20.9050000   28.5060000  
C 14.8620000   20.7670000   27.1190000  
C 13.9690000   20.3370000   26.1340000  
C 12.5580000   20.3080000   26.5770000  
C 15.9510000   21.1050000   29.0840000  
C 16.8790000   21.2280000   28.0590000  
N 16.2070000   20.9560000   26.8690000  
O 18.7220000   21.6480000   29.4300000  
C 18.3060000   21.5370000   28.1590000  
O 19.0580000   21.6670000   27.1770000  
O 11.6110000   20.0570000   25.8110000  
O 11.1590000   20.6380000   28.6630000  
H 13.2360000   21.0690000   30.0500000  
H 16.1720000   21.2160000   30.0790000  
H 17.9200000   21.7850000   30.0360000  
H 16.5940000   20.9590000   25.9290000  
C 14.4170000   20.0180000   24.8030000  
C 15.2580000   18.8900000   24.5600000  
C 15.4430000   18.5170000   23.2590000  
C 15.2120000   19.2610000   22.1280000  
C 14.3940000   20.4020000   22.3370000  
C 14.0850000   20.8350000   23.6720000  
C 15.9080000   17.8690000   25.3850000  
C 16.4880000   16.9790000   24.5170000  
N 16.3720000   17.4580000   23.2290000  
O 17.2360000   15.3160000   26.1070000  
C 17.0600000   15.6140000   24.7770000  
O 17.3010000   14.8220000   23.8760000  
O 14.1040000   21.2340000   21.2900000  
O 13.2970000   21.9490000   23.7690000  
H 15.6620000   17.7050000   26.4620000  
H 17.0920000   16.1210000   26.6200000  
H 16.7010000   16.9910000   22.4540000  
H 14.9050000   21.3300000   20.7260000  
H 12.7460000   21.9350000   22.8890000  
C 15.6270000   18.8280000   20.7660000  
C 15.3060000   17.5260000   20.3030000  
C 15.8820000   17.1500000   19.0740000  
C 17.0000000   17.7720000   18.4030000  
C 17.3080000   19.1010000   18.8980000  
C 16.6280000   19.6180000   20.0480000  
C 14.4580000   16.4380000   20.6770000  
C 14.5930000   15.4540000   19.7790000  
N 15.5270000   15.8670000   18.7940000  
O 13.3030000   13.8940000   20.9980000  
C 14.1300000   14.0940000   19.9510000  
O 14.5080000   13.1970000   19.1840000  
O 18.3590000   19.8220000   18.3490000  
O 16.9570000   20.8610000   20.5450000  
H 13.7670000   16.3150000   21.4900000  
H 13.3800000   14.6230000   21.6020000  
H 15.8720000   15.2920000   18.0280000  
H 18.6210000   19.4670000   17.4690000  
H 17.7740000   21.1240000   20.0660000  
C 17.6160000   17.0500000   17.2770000  
C 16.9860000   16.9260000   16.0380000  
C 17.5370000   16.2640000   15.0310000  
C 18.7290000   15.5040000   15.2030000  
C 19.3400000   15.4630000   16.5000000  
C 18.8260000   16.3580000   17.4570000  
C 15.6540000   17.4260000   15.6250000  
C 15.4840000   16.9060000   14.3400000  
N 16.6820000   16.1800000   13.9560000  
O 13.4160000   17.9700000   13.9970000  
C 14.2970000   17.0820000   13.4580000  
O 14.1110000   16.6090000   12.3880000  
O 20.3870000   14.6390000   16.8060000  
O 19.4680000   16.4180000   18.6590000  
H 14.9630000   18.0050000   16.1110000  
H 13.8970000   18.3790000   14.7400000  
H 16.8090000   15.8850000   12.9820000  
H 20.3160000   14.5820000   17.7700000  
H 19.1210000   17.2020000   19.1650000  
H 19.1820000   14.8530000   14.4650000  
