76
001 
C 10.8840000   13.9990000   17.7680000  
C  9.9130000   14.9000000   17.2100000  
C 10.0820000   16.2800000   17.4450000  
C 11.1670000   16.8660000   18.0820000  
C 12.1700000   16.0900000   18.6270000  
C 12.0810000   14.6370000   18.6260000  
C  9.2550000   17.3860000   17.0920000  
C  9.8600000   18.6330000   17.5420000  
N 11.0500000   18.2320000   18.1450000  
O  8.3890000   20.0920000   16.4100000  
C  9.3920000   20.0140000   17.3120000  
O  9.9680000   20.9920000   17.7760000  
O 12.8050000   13.8710000   19.2450000  
O 10.8060000   12.7870000   17.7080000  
H  9.0970000   14.5370000   16.5630000  
H  8.3000000   17.3090000   16.6800000  
H  8.0820000   19.2150000   16.2610000  
H 11.7310000   18.9130000   18.5410000  
C 13.1740000   16.8310000   19.3320000  
C 12.9540000   17.2120000   20.6720000  
C 13.9680000   17.7260000   21.3920000  
C 15.2570000   18.0340000   20.9610000  
C 15.4490000   17.7150000   19.5620000  
C 14.4190000   17.1730000   18.7690000  
C 11.8180000   17.0290000   21.5600000  
C 12.1860000   17.6150000   22.7620000  
N 13.5810000   17.9420000   22.6610000  
O 10.0250000   17.5500000   23.8580000  
C 11.3130000   17.8590000   23.9760000  
O 11.7970000   18.2980000   24.9870000  
O 16.6630000   17.8610000   19.0660000  
O 14.6860000   17.0080000   17.4800000  
H 10.8220000   16.7590000   21.2080000  
H  9.8600000   17.1070000   22.9670000  
H 14.2240000   18.2390000   23.3950000  
H 17.2610000   17.9960000   19.8290000  
H 15.5410000   17.4270000   17.3140000  
C 16.3650000   18.5050000   21.8580000  
C 17.4510000   17.6260000   22.2030000  
C 18.4510000   17.9790000   23.0650000  
C 18.5790000   19.1690000   23.7640000  
C 17.4970000   20.1150000   23.4290000  
C 16.4300000   19.7880000   22.4970000  
C 17.6290000   16.2000000   21.9370000  
C 18.8660000   15.8470000   22.6660000  
N 19.3540000   16.9560000   23.2880000  
O 19.1850000   13.5600000   21.7480000  
C 19.6350000   14.6060000   22.5040000  
O 20.7550000   14.4400000   23.0020000  
O 17.4980000   21.3400000   23.9070000  
O 15.4380000   20.6810000   22.2230000  
H 17.1220000   15.5610000   21.1820000  
H 18.3150000   13.9600000   21.4830000  
H 20.2690000   17.0350000   23.7150000  
H 18.3640000   21.4120000   24.4480000  
H 15.4650000   21.3870000   22.8960000  
C 19.6920000   19.5080000   24.7390000  
C 20.6330000   20.5700000   24.5240000  
C 21.6910000   20.7840000   25.4070000  
C 21.8280000   20.0660000   26.5460000  
C 20.9490000   18.9700000   26.7910000  
C 19.8400000   18.7240000   25.9350000  
C 20.6940000   21.5440000   23.4770000  
C 21.7320000   22.4250000   23.7850000  
N 22.3020000   21.9340000   25.0020000  
O 21.7100000   23.8960000   21.8920000  
C 22.1700000   23.7080000   23.1280000  
O 23.0240000   24.4320000   23.6240000  
O 21.0680000   18.2760000   27.9330000  
O 18.8920000   17.8710000   26.2730000  
H 19.9890000   21.7360000   22.7200000  
H 21.2760000   23.0810000   21.7680000  
H 23.0700000   22.4580000   25.4560000  
H 20.2530000   17.7050000   28.0090000  
H 18.4250000   17.6150000   25.4530000  
H 22.6490000   20.1580000   27.2480000  
