76
001 
C 12.2820000   14.0240000   26.6730000  
C 13.1640000   12.9190000   27.0660000  
C 14.5020000   12.9140000   26.6120000  
C 14.9640000   13.8490000   25.6950000  
C 14.1620000   14.8790000   25.1770000  
C 12.7930000   15.0920000   25.6730000  
C 15.5980000   12.0100000   26.8460000  
C 16.6650000   12.3600000   25.9740000  
N 16.2300000   13.5300000   25.3350000  
O 18.2300000   10.6840000   26.7550000  
C 18.0460000   11.7040000   25.8850000  
O 18.9460000   12.0680000   25.1560000  
O 12.1240000   16.0640000   25.3370000  
O 11.1810000   14.1250000   27.1900000  
H 12.7590000   12.2390000   27.7960000  
H 15.5560000   11.0860000   27.3810000  
H 17.3430000   10.5310000   27.1320000  
H 16.7440000   13.9230000   24.5410000  
C 14.7560000   15.8170000   24.2120000  
C 14.6920000   15.5530000   22.8480000  
C 15.3500000   16.4180000   22.0930000  
C 15.9080000   17.6740000   22.4510000  
C 15.9080000   17.9910000   23.8390000  
C 15.3280000   17.0050000   24.6550000  
C 14.1990000   14.5150000   22.0260000  
C 14.5840000   14.8120000   20.7060000  
N 15.2460000   16.0220000   20.7260000  
O 13.3470000   12.9630000   19.7270000  
C 14.0600000   14.0980000   19.5040000  
O 14.2430000   14.3950000   18.3560000  
O 16.4020000   19.1360000   24.4200000  
O 15.3420000   17.1470000   26.0340000  
H 13.6080000   13.6530000   22.2990000  
H 13.5090000   12.8160000   20.6190000  
H 15.7100000   16.5450000   20.0120000  
H 16.6530000   19.7940000   23.7450000  
H 15.3320000   18.1330000   26.1290000  
C 16.2630000   18.7150000   21.3610000  
C 15.6610000   19.9620000   21.3540000  
C 15.9330000   20.8750000   20.3240000  
C 16.8930000   20.6030000   19.2870000  
C 17.5350000   19.3790000   19.2890000  
C 17.2920000   18.4690000   20.3310000  
C 14.4400000   20.4750000   21.8830000  
C 14.0240000   21.5710000   21.1520000  
N 15.0560000   21.8840000   20.2270000  
O 11.8240000   21.6110000   22.0920000  
C 12.7440000   22.2590000   21.3110000  
O 12.5170000   23.3160000   20.8720000  
O 18.4360000   19.0230000   18.3770000  
O 17.9430000   17.2880000   20.3830000  
H 13.8700000   19.9390000   22.6430000  
H 12.3320000   20.8190000   22.3550000  
H 15.0260000   22.5730000   19.4910000  
H 18.9220000   19.8040000   18.1220000  
H 18.3490000   17.2480000   19.4970000  
C 17.0330000   21.5620000   18.1690000  
C 17.5150000   22.8500000   18.3320000  
C 17.6270000   23.6970000   17.2570000  
C 17.1370000   23.2750000   15.9760000  
C 16.6250000   21.9920000   15.8850000  
C 16.5000000   21.1320000   16.9670000  
C 18.2320000   23.4330000   19.4490000  
C 18.7340000   24.6250000   18.9460000  
N 18.2040000   24.8840000   17.6610000  
O 20.0210000   25.0070000   20.9450000  
C 19.8090000   25.3930000   19.6530000  
O 20.3450000   26.3680000   19.1610000  
O 16.0380000   21.6440000   14.6790000  
O 15.9400000   19.9200000   16.8100000  
H 18.6870000   22.8690000   20.2720000  
H 19.5260000   24.1690000   21.0020000  
H 18.4860000   25.6150000   17.0470000  
H 15.5140000   20.7920000   14.8380000  
H 16.1590000   19.4430000   17.6300000  
H 17.2330000   23.9270000   15.1380000  
