76
001 
C 12.7000000   25.0370000   23.8600000  
C 11.4100000   24.8090000   23.2790000  
C 11.1020000   23.6560000   22.6270000  
C 11.9420000   22.5820000   22.5210000  
C 13.2060000   22.5990000   23.1390000  
C 13.7190000   23.8230000   23.7100000  
C  9.9440000   23.2470000   21.8800000  
C 10.0510000   21.9530000   21.4000000  
N 11.3100000   21.5670000   21.8590000  
O  7.8700000   21.7110000   20.3450000  
C  9.0760000   21.1640000   20.5960000  
O  9.3060000   20.0640000   20.1830000  
O 14.8540000   23.9100000   24.1370000  
O 12.9330000   26.1700000   24.2940000  
H 10.8100000   25.7060000   23.2560000  
H  9.1060000   23.9510000   21.8290000  
H  7.6980000   22.4370000   20.9220000  
H 11.5790000   20.6150000   21.7670000  
C 14.0460000   21.4200000   22.8800000  
C 14.7360000   21.2310000   21.6980000  
C 15.4000000   20.0360000   21.4460000  
C 15.3950000   18.8890000   22.2820000  
C 14.8270000   19.1600000   23.5480000  
C 14.2150000   20.4140000   23.8170000  
C 14.7490000   21.9030000   20.3790000  
C 15.4230000   21.0910000   19.4720000  
N 15.8500000   19.9980000   20.1530000  
O 15.5120000   22.5770000   17.6800000  
C 15.8190000   21.3290000   18.0780000  
O 16.3500000   20.4910000   17.3330000  
O 14.8810000   18.2360000   24.5720000  
O 13.5870000   20.5670000   25.0360000  
H 14.2700000   22.8310000   20.1790000  
H 15.1260000   22.8630000   18.5080000  
H 16.4610000   19.2570000   19.7690000  
H 15.3450000   17.4190000   24.2380000  
H 13.8300000   19.8640000   25.6860000  
C 15.9970000   17.6320000   21.8630000  
C 17.3710000   17.5450000   21.5080000  
C 17.9240000   16.3940000   21.1260000  
C 17.2590000   15.1630000   21.1250000  
C 15.8970000   15.2430000   21.4690000  
C 15.2470000   16.4660000   21.7890000  
C 18.4780000   18.5030000   21.4370000  
C 19.5920000   17.8400000   20.8350000  
N 19.2450000   16.4430000   20.7920000  
O 20.9310000   19.8150000   20.5560000  
C 20.8440000   18.4340000   20.3560000  
O 21.7840000   17.8040000   19.9400000  
O 15.1570000   14.1300000   21.3540000  
O 13.8670000   16.4370000   21.9370000  
H 18.4340000   19.5680000   21.7060000  
H 20.1440000   20.1570000   20.9850000  
H 19.8370000   15.6640000   20.4310000  
H 15.7290000   13.5740000   20.8180000  
H 13.7190000   15.4800000   22.1220000  
C 18.0400000   13.8950000   20.8360000  
C 18.4220000   13.0090000   21.8150000  
C 19.3410000   12.0480000   21.6050000  
C 19.8230000   11.7460000   20.3380000  
C 19.3090000   12.4810000   19.2880000  
C 18.4920000   13.5990000   19.4970000  
C 18.0810000   13.0500000   23.2170000  
C 18.9350000   12.1140000   23.8130000  
N 19.6150000   11.3980000   22.8320000  
O 18.4000000   12.5690000   26.0760000  
C 19.0510000   11.7280000   25.2060000  
O 19.7300000   10.7750000   25.5860000  
O 19.8130000   12.2840000   18.0050000  
O 17.9870000   14.4010000   18.4420000  
H 17.4300000   13.7810000   23.6740000  
H 18.0240000   13.1340000   25.4490000  
H 20.0420000   10.5000000   22.9050000  
H 19.1710000   12.8090000   17.5130000  
H 17.8460000   15.3520000   18.6570000  
H 20.6210000   10.9590000   20.2220000  
