76
001 
C 11.4260000   12.3200000   24.0250000  
C 12.3490000   11.2020000   23.5690000  
C 13.6170000   11.4790000   23.1260000  
C 14.0100000   12.7700000   22.8330000  
C 13.2300000   13.8880000   22.9980000  
C 11.8860000   13.7850000   23.6090000  
C 14.7890000   10.6880000   22.9000000  
C 15.8770000   11.4940000   22.4610000  
N 15.2760000   12.7720000   22.3250000  
O 17.5390000    9.6900000   22.3680000  
C 17.2320000   10.9750000   22.0690000  
O 17.9800000   11.6900000   21.4240000  
O 11.1980000   14.7260000   23.8760000  
O 10.4710000   12.2250000   24.7460000  
H 12.0080000   10.1680000   23.8180000  
H 14.8190000    9.5890000   23.1590000  
H 16.6930000    9.2480000   22.3790000  
H 15.7020000   13.5170000   22.0160000  
C 13.9320000   15.1230000   22.7620000  
C 13.9470000   15.6660000   21.5230000  
C 14.6900000   16.7170000   21.1610000  
C 15.5040000   17.4750000   22.0510000  
C 15.3130000   17.0530000   23.3860000  
C 14.5640000   15.9090000   23.7290000  
C 13.2850000   15.3550000   20.2560000  
C 13.7390000   16.2070000   19.2430000  
N 14.7050000   17.0970000   19.8190000  
O 12.3140000   15.3980000   17.6930000  
C 13.2120000   16.3380000   17.8840000  
O 13.5580000   17.1650000   17.0550000  
O 15.7980000   17.8810000   24.3130000  
O 14.6190000   15.3800000   24.9900000  
H 12.6570000   14.4680000   20.0640000  
H 12.1170000   15.0600000   18.5590000  
H 15.2340000   17.8150000   19.3470000  
H 16.1800000   18.6750000   23.8360000  
H 15.0060000   16.0090000   25.6550000  
C 16.1840000   18.7220000   21.7300000  
C 15.5110000   19.9660000   22.0810000  
C 15.9800000   21.1460000   21.6470000  
C 17.1580000   21.2740000   20.9040000  
C 17.7430000   20.0660000   20.4780000  
C 17.2300000   18.8160000   20.8200000  
C 14.3140000   20.2190000   22.8130000  
C 14.2160000   21.5890000   22.8630000  
N 15.2230000   22.1700000   22.0810000  
O 12.2460000   21.5560000   24.2420000  
C 13.1670000   22.2740000   23.5990000  
O 13.0910000   23.5120000   23.5340000  
O 18.8560000   20.2030000   19.6600000  
O 17.8610000   17.6500000   20.4150000  
H 13.6880000   19.5150000   23.3750000  
H 12.4150000   20.6280000   23.9800000  
H 15.4090000   23.1580000   21.9260000  
H 19.1910000   21.1150000   19.6670000  
H 18.6170000   17.9280000   19.8170000  
C 17.6110000   22.5840000   20.3400000  
C 18.6650000   23.2770000   20.9430000  
C 19.1620000   24.4530000   20.4960000  
C 18.7890000   25.0300000   19.2940000  
C 17.6820000   24.3890000   18.6560000  
C 17.1060000   23.2140000   19.1580000  
C 19.5630000   22.8920000   22.0310000  
C 20.5600000   23.8210000   22.1040000  
N 20.2190000   24.8420000   21.2730000  
O 21.9040000   22.5420000   23.5380000  
C 21.8410000   23.6820000   22.8800000  
O 22.7790000   24.4990000   22.8490000  
O 17.2870000   24.9060000   17.4860000  
O 16.1060000   22.6030000   18.4390000  
H 19.4000000   22.0270000   22.7210000  
H 21.0520000   22.0670000   23.4420000  
H 20.6230000   25.7520000   21.2610000  
H 16.5670000   24.2950000   17.0650000  
H 15.7450000   21.8770000   18.9800000  
H 19.3810000   25.8340000   18.8360000  
