76
001 
C 12.3270000   20.5310000   28.0430000  
C 13.4950000   20.6870000   28.9290000  
C 14.7590000   20.5760000   28.4740000  
C 15.0440000   20.2560000   27.1590000  
C 14.1310000   20.1160000   26.1400000  
C 12.6660000   20.1140000   26.5080000  
C 16.0130000   20.5490000   29.2080000  
C 17.0610000   20.2410000   28.2440000  
N 16.4140000   20.1420000   27.0650000  
O 19.0100000   20.3840000   29.7660000  
C 18.5250000   20.1890000   28.5040000  
O 19.3250000   19.9090000   27.5890000  
O 11.7370000   19.9360000   25.7300000  
O 11.1360000   20.6240000   28.3560000  
H 13.2750000   20.7830000   29.9650000  
H 16.1310000   20.8330000   30.2510000  
H 18.2590000   20.3840000   30.4040000  
H 16.9030000   19.7980000   26.1890000  
C 14.7260000   19.6450000   24.9260000  
C 15.1520000   18.2710000   24.6640000  
C 15.7760000   17.9440000   23.5150000  
C 15.9580000   18.8590000   22.4340000  
C 15.6040000   20.1580000   22.6850000  
C 14.9610000   20.5530000   23.8440000  
C 14.9200000   17.0910000   25.4040000  
C 15.4110000   15.9990000   24.6150000  
N 16.0060000   16.5830000   23.4620000  
O 14.5790000   14.2640000   25.9170000  
C 15.2960000   14.5480000   24.7920000  
O 15.7580000   13.6580000   24.0930000  
O 15.8110000   21.0860000   21.7560000  
O 14.6230000   21.9010000   23.9870000  
H 14.3290000   17.0870000   26.2530000  
H 14.0960000   15.0930000   26.0210000  
H 16.6920000   16.0780000   22.8990000  
H 16.1570000   20.6760000   20.9810000  
H 14.8970000   22.4170000   23.1150000  
C 16.5380000   18.3200000   21.2010000  
C 15.8120000   17.4060000   20.3860000  
C 16.1650000   17.1060000   19.0740000  
C 17.3960000   17.4880000   18.4770000  
C 18.1850000   18.3560000   19.2770000  
C 17.7940000   18.7910000   20.6540000  
C 14.4880000   16.8380000   20.5920000  
C 14.1740000   16.0800000   19.4280000  
N 15.2080000   16.3200000   18.4850000  
O 12.2490000   15.3550000   20.4360000  
C 12.9560000   15.3430000   19.3150000  
O 12.6300000   14.6340000   18.3940000  
O 19.3950000   18.8690000   18.8980000  
O 18.5900000   19.7760000   21.2350000  
H 14.0300000   16.8300000   21.5010000  
H 12.5900000   16.1360000   20.9140000  
H 15.2230000   16.0720000   17.5180000  
H 19.5600000   18.6760000   17.9490000  
H 19.3560000   19.8370000   20.6510000  
C 17.6860000   17.2070000   17.0340000  
C 16.8350000   17.5460000   15.9530000  
C 17.2100000   17.3010000   14.6850000  
C 18.4280000   16.7170000   14.3280000  
C 19.2840000   16.3050000   15.3640000  
C 18.8820000   16.5810000   16.7420000  
C 15.5750000   18.2570000   15.8790000  
C 15.2930000   18.4900000   14.5570000  
N 16.2120000   17.7780000   13.8020000  
O 13.2770000   19.6980000   15.0960000  
C 14.1260000   19.2580000   14.0970000  
O 13.8710000   19.4590000   12.9640000  
O 20.4610000   15.6880000   15.1200000  
O 19.6930000   16.0560000   17.7300000  
H 14.9940000   18.6470000   16.6650000  
H 13.7000000   19.4520000   15.9500000  
H 16.1540000   17.7130000   12.8280000  
H 20.8100000   15.3150000   15.9620000  
H 19.1440000   16.1140000   18.5210000  
H 18.8710000   16.5900000   13.3640000  
