76
001 
C 13.3900000   14.7820000   28.0710000  
C 14.2120000   15.5040000   29.0930000  
C 15.1400000   16.4080000   28.7300000  
C 15.3360000   16.7800000   27.3670000  
C 14.5930000   16.2760000   26.3910000  
C 13.5510000   15.3390000   26.6410000  
C 16.0730000   17.1630000   29.4070000  
C 16.8770000   17.9020000   28.5050000  
N 16.3940000   17.5960000   27.2320000  
O 18.4140000   18.9970000   30.0450000  
C 18.0550000   18.7800000   28.7710000  
O 18.5200000   19.4040000   27.8260000  
O 12.7940000   14.8920000   25.8120000  
O 12.6830000   13.8960000   28.3790000  
H 14.0210000   15.1940000   30.0950000  
H 16.2270000   17.1540000   30.4730000  
H 17.6910000   18.7540000   30.6670000  
H 16.7800000   17.9010000   26.3160000  
C 14.9530000   16.7990000   25.0510000  
C 15.6730000   15.9520000   24.1230000  
C 16.1720000   16.4920000   22.9490000  
C 15.7120000   17.7360000   22.3960000  
C 15.0080000   18.5430000   23.3160000  
C 14.6460000   18.1400000   24.6280000  
C 16.2250000   14.5520000   24.1410000  
C 16.9620000   14.4130000   22.9910000  
N 16.9360000   15.5880000   22.2380000  
O 17.5050000   12.2690000   23.5480000  
C 17.6350000   13.1910000   22.5910000  
O 18.2630000   12.9520000   21.5850000  
O 14.6220000   19.7880000   22.7660000  
O 13.9090000   19.0240000   25.4200000  
H 15.8950000   13.7600000   24.7580000  
H 16.9090000   12.6240000   24.2350000  
H 17.3080000   15.6650000   21.2690000  
H 14.7850000   19.7870000   21.7780000  
H 13.8960000   19.7690000   24.9230000  
C 16.0740000   18.1540000   20.9730000  
C 15.0610000   18.4470000   19.9960000  
C 15.4560000   18.8980000   18.8100000  
C 16.8110000   19.1170000   18.3750000  
C 17.8200000   18.7860000   19.3840000  
C 17.4160000   18.3790000   20.6520000  
C 13.6710000   18.1570000   20.0040000  
C 13.2400000   18.5540000   18.7140000  
N 14.3520000   18.9870000   18.0280000  
O 10.8740000   18.2800000   19.0050000  
C 11.8850000   18.5400000   18.1550000  
O 11.6970000   18.8370000   16.9610000  
O 19.1460000   18.9200000   19.0410000  
O 18.4030000   18.1460000   21.5890000  
H 13.0560000   17.7780000   20.7850000  
H 11.2550000   18.0640000   19.8870000  
H 14.2460000   19.3740000   17.0760000  
H 19.2250000   18.8500000   18.1030000  
H 19.2720000   18.3640000   21.2720000  
C 17.1370000   19.8570000   17.1390000  
C 16.7060000   21.1500000   16.8300000  
C 16.9670000   21.7230000   15.6020000  
C 17.6690000   20.9980000   14.5930000  
C 18.1870000   19.7230000   14.8240000  
C 17.8680000   19.1430000   16.1170000  
C 15.7880000   22.0740000   17.4910000  
C 15.4440000   23.0210000   16.5450000  
N 16.2190000   22.8590000   15.4040000  
O 13.9370000   24.2520000   17.9360000  
C 14.6290000   24.2190000   16.7970000  
O 14.7370000   25.1840000   16.1140000  
O 19.0100000   19.1190000   13.9030000  
O 18.2930000   17.8870000   16.2790000  
H 15.6000000   22.1430000   18.5350000  
H 13.9810000   23.3320000   18.3190000  
H 16.0420000   23.3410000   14.5580000  
H 18.9910000   18.1660000   14.2100000  
H 17.9860000   17.5340000   17.1220000  
H 17.9200000   21.5440000   13.6720000  
