76
001 
C 10.5300000   15.6050000   16.5260000  
C  9.7460000   16.8830000   16.4330000  
C  9.9970000   17.8890000   17.3180000  
C 11.1420000   17.8860000   18.1520000  
C 12.0230000   16.8390000   18.2740000  
C 11.8680000   15.6730000   17.4040000  
C  9.4150000   19.1690000   17.5640000  
C 10.1530000   19.8250000   18.5180000  
N 11.1770000   18.9560000   18.8990000  
O  8.9080000   21.8440000   18.4210000  
C  9.9510000   21.2380000   19.0290000  
O 10.7480000   21.7100000   19.7840000  
O 12.6650000   14.7280000   17.3850000  
O 10.1930000   14.6290000   15.8680000  
H  8.8890000   16.9490000   15.7050000  
H  8.5460000   19.4770000   17.0820000  
H  8.3800000   21.0990000   18.0130000  
H 11.9000000   19.2080000   19.5540000  
C 13.1870000   17.1090000   19.0980000  
C 13.0060000   17.0250000   20.4810000  
C 13.9870000   17.2740000   21.3450000  
C 15.2020000   17.8140000   21.0190000  
C 15.4080000   17.9840000   19.6570000  
C 14.3850000   17.6700000   18.7500000  
C 11.8780000   16.6860000   21.2430000  
C 12.2440000   16.7260000   22.6230000  
N 13.6280000   17.1380000   22.6190000  
O 10.1940000   16.2440000   23.5430000  
C 11.4220000   16.6320000   23.8060000  
O 11.7820000   16.6650000   24.9590000  
O 16.5550000   18.6520000   19.2540000  
O 14.6360000   17.8990000   17.4320000  
H 10.8320000   16.6670000   20.9240000  
H  9.9420000   16.2930000   22.6020000  
H 14.2620000   17.2550000   23.4310000  
H 17.1010000   18.8830000   20.0080000  
H 15.5970000   18.0340000   17.3630000  
C 16.3260000   18.1190000   21.9740000  
C 17.4650000   17.3550000   22.0800000  
C 18.4430000   17.6550000   23.0440000  
C 18.4620000   18.6750000   24.0090000  
C 17.2950000   19.4770000   23.9270000  
C 16.2560000   19.2170000   22.9840000  
C 18.0230000   16.3040000   21.3170000  
C 19.2650000   15.9110000   21.8520000  
N 19.4990000   16.7800000   22.9200000  
O 19.7100000   13.9540000   20.5320000  
C 20.1570000   14.7970000   21.4080000  
O 21.2450000   14.6430000   21.8770000  
O 17.0560000   20.4320000   24.9110000  
O 15.1950000   20.0500000   22.9520000  
H 17.6720000   15.9630000   20.3260000  
H 18.9390000   14.4020000   20.0690000  
H 20.3810000   16.9250000   23.4040000  
H 17.7280000   20.2860000   25.6560000  
H 15.3860000   20.9290000   23.3290000  
C 19.5670000   18.8930000   24.9270000  
C 20.3710000   19.9410000   24.8210000  
C 21.4580000   20.1230000   25.6430000  
C 21.8320000   19.1880000   26.6730000  
C 21.0350000   18.0860000   26.8150000  
C 19.8360000   17.9700000   26.0110000  
C 20.3860000   20.9900000   23.8500000  
C 21.5040000   21.8050000   24.1470000  
N 22.2000000   21.2400000   25.2110000  
O 20.9390000   23.4390000   22.4720000  
C 21.8450000   23.0360000   23.4410000  
O 22.8140000   23.7300000   23.7220000  
O 21.3050000   17.0710000   27.7160000  
O 18.8840000   17.0210000   26.2790000  
H 19.6700000   21.1350000   23.0640000  
H 20.3430000   22.6720000   22.3690000  
H 22.9960000   21.6740000   25.6890000  
H 20.6410000   16.3310000   27.7060000  
H 18.1600000   17.1370000   25.6390000  
H 22.7070000   19.3740000   27.2160000  
