76
001 
C 13.1200000   14.2410000   27.3650000  
C 13.9260000   14.2870000   28.5610000  
C 15.0410000   15.2090000   28.5180000  
C 15.3710000   15.9710000   27.4400000  
C 14.7600000   15.8820000   26.1850000  
C 13.6380000   14.9470000   26.0120000  
C 16.0200000   15.5750000   29.5330000  
C 16.9000000   16.5180000   28.9990000  
N 16.5010000   16.6400000   27.6500000  
O 18.2280000   16.6800000   30.9140000  
C 18.1020000   17.0980000   29.6410000  
O 18.8970000   17.8280000   29.1870000  
O 12.9270000   14.7570000   25.0310000  
O 12.2310000   13.4600000   27.3270000  
H 13.7680000   13.6120000   29.3940000  
H 15.9370000   15.2540000   30.5220000  
H 17.4940000   16.1240000   31.0680000  
H 17.0160000   17.0930000   26.9800000  
C 15.3000000   16.6030000   24.9720000  
C 15.6980000   15.9010000   23.7690000  
C 16.1080000   16.6070000   22.6700000  
C 15.9620000   17.9400000   22.4960000  
C 15.4690000   18.6790000   23.6070000  
C 15.3010000   18.0320000   24.8710000  
C 15.7330000   14.4830000   23.4210000  
C 16.1520000   14.5100000   22.0690000  
N 16.2930000   15.7960000   21.5860000  
O 16.3740000   12.2230000   21.9480000  
C 16.4710000   13.3620000   21.2830000  
O 16.8090000   13.4540000   20.0880000  
O 15.1350000   19.9380000   23.3950000  
O 14.7950000   18.8060000   25.9630000  
H 15.7060000   13.6400000   24.0830000  
H 16.3230000   12.5420000   22.9040000  
H 16.6770000   16.1210000   20.6640000  
H 15.4330000   20.1670000   22.4720000  
H 14.7500000   19.7630000   25.7470000  
C 16.1820000   18.6380000   21.1730000  
C 15.1650000   19.2410000   20.3990000  
C 15.3990000   19.7280000   19.1550000  
C 16.6620000   19.6500000   18.5080000  
C 17.7190000   19.1000000   19.2640000  
C 17.5180000   18.6220000   20.6010000  
C 13.7160000   19.1610000   20.5770000  
C 13.1640000   19.6300000   19.3770000  
N 14.1820000   20.0520000   18.5140000  
O 10.9930000   18.6670000   19.7740000  
C 11.7510000   19.4930000   18.9760000  
O 11.3260000   20.0000000   17.9720000  
O 18.9280000   18.9240000   18.6570000  
O 18.6130000   18.0990000   21.2380000  
H 13.1640000   18.7610000   21.3710000  
H 11.6530000   18.2950000   20.3690000  
H 14.1920000   20.4330000   17.5700000  
H 18.9310000   19.6010000   17.9700000  
H 19.3790000   17.9810000   20.6280000  
C 16.9630000   20.1760000   17.1690000  
C 16.7930000   21.5390000   16.8010000  
C 16.8750000   21.9250000   15.5050000  
C 17.1230000   21.0000000   14.4880000  
C 17.1960000   19.5880000   14.8220000  
C 17.1970000   19.1840000   16.1440000  
C 16.7590000   22.7250000   17.6020000  
C 16.6660000   23.7890000   16.6890000  
N 16.7530000   23.2940000   15.3740000  
O 16.3660000   25.3930000   18.3740000  
C 16.5340000   25.2150000   17.0490000  
O 16.4260000   26.1070000   16.2670000  
O 17.1740000   18.6890000   13.7870000  
O 17.3440000   17.8470000   16.3940000  
H 16.6540000   22.8160000   18.6450000  
H 16.4830000   24.4980000   18.6970000  
H 16.7410000   23.8680000   14.5370000  
H 17.4880000   17.8520000   14.1800000  
H 17.2440000   17.7850000   17.3790000  
H 17.4100000   21.2690000   13.4690000  
