76
001 
C 12.4530000   11.7430000   24.3540000  
C 13.0220000   10.9320000   23.2330000  
C 13.8390000   11.5300000   22.2990000  
C 14.1590000   12.8690000   22.3250000  
C 13.5740000   13.7180000   23.2360000  
C 12.5950000   13.2650000   24.2100000  
C 14.5010000   10.9680000   21.1490000  
C 15.2180000   12.0110000   20.4480000  
N 14.9380000   13.1630000   21.2160000  
O 16.3020000   10.6510000   18.8040000  
C 16.1000000   11.9070000   19.3070000  
O 16.6110000   12.8800000   18.7680000  
O 11.9210000   14.0290000   24.8810000  
O 11.8070000   11.2200000   25.2580000  
H 12.6930000    9.9090000   23.1300000  
H 14.3740000    9.9500000   20.7690000  
H 15.8600000   10.1180000   19.4010000  
H 15.3430000   14.0340000   21.0140000  
C 13.9580000   15.1290000   23.0290000  
C 13.3990000   15.9440000   22.0350000  
C 13.9530000   17.1900000   21.7700000  
C 15.0180000   17.7670000   22.3630000  
C 15.6290000   16.9170000   23.3050000  
C 15.0830000   15.6680000   23.6680000  
C 12.2510000   15.7530000   21.1510000  
C 12.0750000   16.9920000   20.5200000  
N 13.1490000   17.8030000   20.9200000  
O  9.9300000   16.4990000   19.5260000  
C 10.9060000   17.4260000   19.7150000  
O 10.7540000   18.5300000   19.2170000  
O 16.7530000   17.3600000   24.0350000  
O 15.6310000   15.0220000   24.7920000  
H 11.5060000   15.0330000   21.3240000  
H 10.2160000   15.7080000   19.8770000  
H 13.1830000   18.7840000   20.6360000  
H 17.0490000   18.1980000   23.7070000  
H 16.3570000   15.6050000   25.0390000  
C 15.6130000   19.0570000   21.9370000  
C 15.7900000   20.1520000   22.7870000  
C 16.4090000   21.2770000   22.3310000  
C 16.8070000   21.5490000   21.0290000  
C 16.6580000   20.4290000   20.1730000  
C 16.1530000   19.2350000   20.6540000  
C 15.6300000   20.2930000   24.2150000  
C 16.1030000   21.5560000   24.5280000  
N 16.6830000   22.1310000   23.3640000  
O 15.6060000   21.4730000   26.8400000  
C 16.0590000   22.2680000   25.8410000  
O 16.5240000   23.3680000   26.0520000  
O 17.1730000   20.5020000   18.9470000  
O 16.0850000   18.2220000   19.6840000  
H 15.0000000   19.6150000   24.8120000  
H 15.5380000   20.6070000   26.4430000  
H 16.9370000   23.0810000   23.2840000  
H 17.3520000   21.4760000   18.8550000  
H 16.4570000   18.6340000   18.8660000  
C 17.5070000   22.7300000   20.5940000  
C 18.8230000   22.6540000   20.2220000  
C 19.4810000   23.7180000   19.7260000  
C 18.9250000   25.0370000   19.6510000  
C 17.6180000   25.1600000   20.0290000  
C 16.8860000   24.0030000   20.5120000  
C 19.7780000   21.4590000   20.1640000  
C 20.9970000   22.0060000   19.9040000  
N 20.8050000   23.3490000   19.6180000  
O 22.3490000   19.9840000   20.0710000  
C 22.3080000   21.3130000   19.8000000  
O 23.3470000   21.9220000   19.6020000  
O 17.0580000   26.4420000   19.9930000  
O 15.5490000   23.9980000   20.7900000  
H 19.5320000   20.4160000   20.3700000  
H 21.4980000   19.6650000   20.1420000  
H 21.6560000   23.9470000   19.5250000  
H 16.1530000   26.2220000   20.3210000  
H 15.2370000   23.1010000   20.8100000  
H 19.4430000   25.8900000   19.2120000  
