76
001 
C 11.4040000   11.8440000   21.2070000  
C 11.4500000   11.8040000   19.6870000  
C 11.9150000   12.8530000   19.0080000  
C 12.5260000   13.9640000   19.6680000  
C 12.5710000   14.1400000   21.0150000  
C 11.9080000   13.1640000   21.8770000  
C 12.2560000   13.0090000   17.6340000  
C 13.0450000   14.1450000   17.4420000  
N 13.1620000   14.7600000   18.7050000  
O 13.5580000   13.9300000   15.1520000  
C 13.8170000   14.5810000   16.3230000  
O 14.6740000   15.4510000   16.2820000  
O 11.7450000   13.4080000   23.0810000  
O 10.9100000   10.9020000   21.7840000  
H 11.0610000   10.9450000   19.2030000  
H 12.0900000   12.2650000   16.8710000  
H 12.9220000   13.3140000   15.3080000  
H 13.6390000   15.6210000   18.8870000  
C 13.4000000   15.2570000   21.4700000  
C 12.8610000   16.4850000   21.7690000  
C 13.7140000   17.5210000   22.0650000  
C 15.1060000   17.5130000   22.2000000  
C 15.6660000   16.1930000   21.8890000  
C 14.8300000   15.0700000   21.4720000  
C 11.5570000   17.0700000   21.6760000  
C 11.6380000   18.3950000   22.0840000  
N 12.9890000   18.6400000   22.3190000  
O  9.2350000   18.8370000   21.9240000  
C 10.4580000   19.3280000   22.2810000  
O 10.5350000   20.4150000   22.8340000  
O 17.0280000   15.8860000   21.8620000  
O 15.4030000   13.8700000   21.2020000  
H 10.6110000   16.5580000   21.4860000  
H  9.3940000   17.8440000   21.8320000  
H 13.3820000   19.5580000   22.5150000  
H 17.5050000   16.7640000   21.9430000  
H 16.3360000   13.9100000   21.3000000  
C 15.8630000   18.8050000   22.3970000  
C 16.7560000   18.9720000   23.4640000  
C 17.4920000   20.0770000   23.5600000  
C 17.4160000   21.2110000   22.7860000  
C 16.5260000   21.1050000   21.7080000  
C 15.8810000   19.8640000   21.4310000  
C 17.2230000   18.0600000   24.5420000  
C 18.1870000   18.7560000   25.2430000  
N 18.3730000   19.9630000   24.5830000  
O 18.7340000   17.0080000   26.7900000  
C 18.9970000   18.2840000   26.4650000  
O 19.8690000   18.9480000   26.9670000  
O 16.4070000   22.1780000   20.8840000  
O 15.0980000   19.7840000   20.3300000  
H 16.9690000   16.9930000   24.8230000  
H 17.8350000   16.8890000   26.3410000  
H 19.1620000   20.5700000   24.7930000  
H 16.8890000   22.9170000   21.2980000  
H 15.5460000   20.3370000   19.6710000  
C 18.4430000   22.3250000   22.8990000  
C 19.5540000   22.4230000   22.0180000  
C 20.4840000   23.4300000   22.0730000  
C 20.4750000   24.3400000   23.1050000  
C 19.4300000   24.2410000   24.0870000  
C 18.4670000   23.1910000   24.0500000  
C 19.7610000   21.6510000   20.7950000  
C 20.9370000   22.1580000   20.2460000  
N 21.4280000   23.1770000   21.1240000  
O 21.1020000   20.4580000   18.5530000  
C 21.7440000   21.4510000   19.1750000  
O 22.8950000   21.8030000   18.9040000  
O 19.5210000   25.0390000   25.2180000  
O 17.4630000   23.1960000   24.9520000  
H 19.1500000   20.8370000   20.3420000  
H 20.1480000   20.5460000   18.9130000  
H 22.3170000   23.6410000   21.0770000  
H 18.8530000   24.7640000   25.8840000  
H 16.7420000   22.6070000   24.7110000  
H 21.3930000   24.9450000   23.2960000  
