76
001 
C 13.9710000   25.4270000   22.0990000  
C 12.9150000   25.5000000   23.1500000  
C 12.4760000   24.3510000   23.6780000  
C 13.1050000   23.0960000   23.4590000  
C 14.1710000   22.9400000   22.6980000  
C 14.6700000   24.0600000   21.8680000  
C 11.4040000   24.0790000   24.5580000  
C 11.4090000   22.7000000   24.9120000  
N 12.4620000   22.1550000   24.2100000  
O  9.6920000   22.7700000   26.6710000  
C 10.5380000   21.9670000   25.9640000  
O 10.6190000   20.7830000   26.1430000  
O 15.6450000   23.9230000   21.1840000  
O 14.3190000   26.3930000   21.4830000  
H 12.4600000   26.4640000   23.3640000  
H 10.7660000   24.8810000   24.9030000  
H  9.6800000   23.6570000   26.2810000  
H 12.7640000   21.2100000   24.1720000  
C 14.6590000   21.6520000   22.5200000  
C 14.3570000   21.0220000   21.2770000  
C 14.8260000   19.7710000   20.9790000  
C 15.6730000   19.1080000   21.8850000  
C 16.0790000   19.7990000   23.0360000  
C 15.5770000   21.0650000   23.4260000  
C 13.4710000   21.4110000   20.3060000  
C 13.4960000   20.3890000   19.3290000  
N 14.3250000   19.3150000   19.7790000  
O 11.9410000   21.4950000   17.8070000  
C 12.8970000   20.4690000   17.9870000  
O 13.2270000   19.6830000   17.1250000  
O 17.0800000   19.1950000   23.7680000  
O 15.9340000   21.6050000   24.5990000  
H 12.9750000   22.3360000   20.1550000  
H 11.6500000   21.6930000   18.6840000  
H 14.5770000   18.4790000   19.3410000  
H 17.4050000   18.4390000   23.3050000  
H 16.6160000   21.0800000   24.9500000  
C 16.0560000   17.6930000   21.6590000  
C 17.3820000   17.4040000   21.2280000  
C 17.6320000   16.0800000   20.8700000  
C 16.7480000   14.9810000   20.9500000  
C 15.4820000   15.3320000   21.4780000  
C 15.1120000   16.6430000   21.7210000  
C 18.5000000   18.2430000   20.8290000  
C 19.4190000   17.3220000   20.2310000  
N 18.9000000   15.9850000   20.3130000  
O 20.9770000   19.0220000   19.8190000  
C 20.7080000   17.7140000   19.6860000  
O 21.4120000   16.9000000   19.1200000  
O 14.5540000   14.3730000   21.7710000  
O 13.8850000   16.9000000   22.2440000  
H 18.6200000   19.3240000   20.9770000  
H 20.1240000   19.3160000   20.1610000  
H 19.3890000   15.1270000   20.0320000  
H 14.9630000   13.4880000   21.6590000  
H 13.4630000   16.0340000   22.6510000  
C 17.1320000   13.6210000   20.5070000  
C 17.9620000   12.8500000   21.2800000  
C 18.3540000   11.6180000   20.8490000  
C 18.0520000   11.0680000   19.5970000  
C 17.2150000   11.8620000   18.8070000  
C 16.8250000   13.1270000   19.2360000  
C 18.5230000   13.1530000   22.5820000  
C 19.3860000   12.0790000   22.7900000  
N 19.1970000   11.1170000   21.7710000  
O 20.5860000   13.1110000   24.5710000  
C 20.3440000   11.9890000   23.9090000  
O 20.8480000   10.9280000   24.2610000  
O 16.8810000   11.4780000   17.5830000  
O 15.9530000   13.8160000   18.4720000  
H 18.4490000   14.1180000   23.0490000  
H 19.9730000   13.7950000   24.2440000  
H 19.5350000   10.2230000   21.6340000  
H 16.1330000   11.9270000   17.2600000  
H 15.8770000   14.7610000   18.7280000  
H 18.2750000   10.0560000   19.3560000  
