76
001 
C 13.8340000   16.9920000   28.9570000  
C 14.1920000   18.2980000   29.6480000  
C 14.9800000   19.1620000   28.9960000  
C 15.1080000   19.1920000   27.6010000  
C 14.5810000   18.2120000   26.8050000  
C 14.1180000   16.9510000   27.4110000  
C 15.6090000   20.3710000   29.4580000  
C 16.1900000   21.0520000   28.3590000  
N 15.7620000   20.3320000   27.2350000  
O 17.2100000   22.8870000   29.6350000  
C 16.8700000   22.3780000   28.4470000  
O 17.1810000   23.0550000   27.4620000  
O 13.9590000   15.9230000   26.7680000  
O 13.1770000   16.1120000   29.4130000  
H 13.9400000   18.3620000   30.7390000  
H 15.6000000   20.7220000   30.4770000  
H 16.8180000   22.2880000   30.2550000  
H 15.9880000   20.7430000   26.2910000  
C 14.7730000   18.3770000   25.3390000  
C 16.0410000   18.1180000   24.7530000  
C 16.2080000   18.2820000   23.3900000  
C 15.2070000   18.5740000   22.4620000  
C 13.9370000   18.7950000   23.0030000  
C 13.7240000   18.6580000   24.4440000  
C 17.3380000   17.7490000   25.3090000  
C 18.2280000   17.6600000   24.2030000  
N 17.5730000   18.0320000   23.0420000  
O 20.1610000   17.2250000   25.4570000  
C 19.6610000   17.2840000   24.2060000  
O 20.4060000   17.1440000   23.2640000  
O 12.9610000   19.0980000   22.1460000  
O 12.4510000   18.8890000   24.9400000  
H 17.6190000   17.6240000   26.3110000  
H 19.5310000   17.4640000   26.1480000  
H 17.9610000   18.0210000   22.1190000  
H 13.4090000   19.0690000   21.3040000  
H 11.9220000   19.2520000   24.1950000  
C 15.4600000   18.6990000   20.9730000  
C 15.5640000   17.5610000   20.2110000  
C 15.8430000   17.6490000   18.9130000  
C 16.1180000   18.8150000   18.1970000  
C 15.8460000   20.0460000   18.9180000  
C 15.5750000   19.9730000   20.3320000  
C 15.3250000   16.1260000   20.4510000  
C 15.7480000   15.4510000   19.3170000  
N 16.1580000   16.4020000   18.3920000  
O 15.4750000   13.1690000   20.0520000  
C 15.9950000   14.0170000   19.1060000  
O 16.4970000   13.5640000   18.1060000  
O 16.1970000   21.2060000   18.3160000  
O 15.5820000   21.1460000   21.0350000  
H 15.0040000   15.5590000   21.3250000  
H 15.1670000   13.7620000   20.7300000  
H 16.5120000   16.2720000   17.4390000  
H 15.8020000   21.0720000   17.3830000  
H 15.7410000   21.8490000   20.4040000  
C 16.5720000   18.7760000   16.7390000  
C 15.7580000   18.2320000   15.7880000  
C 16.0870000   18.2050000   14.4340000  
C 17.3290000   18.7140000   13.9360000  
C 18.2430000   19.2060000   14.9550000  
C 17.8210000   19.3370000   16.3160000  
C 14.4530000   17.6490000   15.8890000  
C 14.1210000   17.1420000   14.6360000  
N 15.1200000   17.5150000   13.7160000  
O 12.1250000   16.0830000   15.2300000  
C 12.9380000   16.3680000   14.2020000  
O 12.7650000   15.8400000   13.1450000  
O 19.5600000   19.4570000   14.5930000  
O 18.6370000   19.9870000   17.2180000  
H 13.9400000   17.5210000   16.8020000  
H 12.5240000   16.6080000   15.9510000  
H 15.2160000   17.2250000   12.7430000  
H 20.0120000   19.6150000   15.4160000  
H 18.0810000   20.3690000   17.9550000  
H 17.6070000   18.5490000   12.8760000  
