76
001 
C  9.8530000   16.9920000   17.2030000  
C  9.4970000   18.3550000   16.7230000  
C 10.2310000   19.4380000   17.1810000  
C 11.4200000   19.3070000   17.8330000  
C 11.9370000   18.0980000   18.3190000  
C 11.1260000   16.8790000   18.0680000  
C  9.9540000   20.8320000   17.1150000  
C 10.9590000   21.5630000   17.6830000  
N 11.8890000   20.5910000   18.1150000  
O 10.0250000   23.7110000   17.3970000  
C 11.0490000   22.9470000   17.9260000  
O 11.9660000   23.4220000   18.5480000  
O 11.4120000   15.8300000   18.5430000  
O  9.1610000   16.0360000   16.9180000  
H  8.6370000   18.4310000   16.0650000  
H  9.1110000   21.2340000   16.5850000  
H  9.3650000   23.0180000   17.1830000  
H 12.7920000   20.7470000   18.5590000  
C 13.1760000   18.1120000   19.1030000  
C 13.0100000   17.8980000   20.4650000  
C 14.1170000   18.0020000   21.2260000  
C 15.4280000   18.2520000   20.8220000  
C 15.5490000   18.4030000   19.4490000  
C 14.4780000   18.3300000   18.5700000  
C 11.9450000   17.4630000   21.3030000  
C 12.3900000   17.4990000   22.6320000  
N 13.7970000   17.7390000   22.5570000  
O 10.1850000   17.3450000   23.6600000  
C 11.5350000   17.4200000   23.8250000  
O 12.0120000   17.3920000   24.9720000  
O 16.8540000   18.6620000   19.0480000  
O 14.6610000   18.4020000   17.1910000  
H 10.9160000   17.3940000   21.0340000  
H 10.0810000   17.5520000   22.7680000  
H 14.3360000   17.9730000   23.3930000  
H 17.4820000   18.3790000   19.7120000  
H 15.6410000   18.6400000   16.9890000  
C 16.4780000   18.3310000   21.8340000  
C 17.3950000   17.3050000   22.0020000  
C 18.2020000   17.2310000   23.0600000  
C 18.4010000   18.3350000   23.9570000  
C 17.5990000   19.4980000   23.6790000  
C 16.6710000   19.4930000   22.6340000  
C 17.2920000   15.9710000   21.4150000  
C 17.9820000   15.1580000   22.3330000  
N 18.6600000   15.9720000   23.2250000  
O 17.3650000   13.0380000   21.4140000  
C 18.0970000   13.6950000   22.3440000  
O 18.8470000   13.1360000   23.1130000  
O 17.6830000   20.6130000   24.4220000  
O 15.8540000   20.5480000   22.5080000  
H 16.7450000   15.7020000   20.5110000  
H 17.2260000   13.7610000   20.7510000  
H 19.1800000   15.6580000   24.0180000  
H 18.2290000   20.4250000   25.2540000  
H 16.0730000   21.1200000   23.2770000  
C 19.2990000   18.2230000   25.0680000  
C 20.6670000   18.1970000   24.7780000  
C 21.6490000   18.0650000   25.7220000  
C 21.3060000   17.9970000   27.1110000  
C 19.9980000   18.1400000   27.4610000  
C 18.9950000   18.2350000   26.4510000  
C 21.3260000   18.4120000   23.5340000  
C 22.7080000   18.4290000   23.8140000  
N 22.9180000   18.1740000   25.1780000  
O 23.3880000   19.0090000   21.6430000  
C 23.7660000   18.7990000   22.9040000  
O 24.9170000   18.8460000   23.2170000  
O 19.7290000   18.2380000   28.7660000  
O 17.7210000   18.5450000   26.7630000  
H 20.9200000   18.4900000   22.5400000  
H 22.4340000   18.8530000   21.6530000  
H 23.8050000   18.2990000   25.6010000  
H 18.8290000   18.3890000   28.8170000  
H 17.1840000   18.4820000   25.9090000  
H 22.1650000   18.1800000   27.7680000  
