76
001 
C 13.3420000   13.4980000   27.0060000  
C 13.9430000   13.9790000   28.2760000  
C 14.7880000   15.0480000   28.2910000  
C 15.0810000   15.7370000   27.0480000  
C 14.7240000   15.3410000   25.7980000  
C 13.7670000   14.2310000   25.7160000  
C 15.5250000   15.7270000   29.3150000  
C 16.3320000   16.7250000   28.6250000  
N 16.0460000   16.6630000   27.2630000  
O 17.3410000   17.5800000   30.5690000  
C 17.2640000   17.6870000   29.2710000  
O 17.8820000   18.5920000   28.7150000  
O 13.3150000   13.7310000   24.6550000  
O 12.5680000   12.5210000   27.0560000  
H 13.6230000   13.4400000   29.1560000  
H 15.3990000   15.5250000   30.3660000  
H 16.9540000   16.6740000   30.7060000  
H 16.5720000   17.1460000   26.5500000  
C 15.0840000   16.1010000   24.6070000  
C 16.3150000   15.9730000   23.9180000  
C 16.6300000   16.7350000   22.8220000  
C 15.6860000   17.6210000   22.1910000  
C 14.4040000   17.7050000   22.8690000  
C 14.1670000   17.0180000   24.0520000  
C 17.4550000   15.0950000   24.1140000  
C 18.3360000   15.3170000   23.0900000  
N 17.7860000   16.2910000   22.2410000  
O 19.7170000   13.4860000   23.7310000  
C 19.5320000   14.4840000   22.8040000  
O 20.2530000   14.6600000   21.8050000  
O 13.4150000   18.5800000   22.4600000  
O 13.0150000   17.2600000   24.7560000  
H 17.6310000   14.3410000   24.8790000  
H 18.9300000   13.4180000   24.2790000  
H 18.0020000   16.4410000   21.2600000  
H 13.7250000   19.0990000   21.7220000  
H 12.2740000   17.4950000   24.1780000  
C 15.9410000   18.3810000   20.9430000  
C 15.1190000   18.3530000   19.8020000  
C 15.4220000   19.0310000   18.6590000  
C 16.5400000   19.9460000   18.5040000  
C 17.3790000   20.0320000   19.6190000  
C 17.1390000   19.2350000   20.8300000  
C 14.0780000   17.4720000   19.4480000  
C 13.7560000   17.6880000   18.1160000  
N 14.5340000   18.7460000   17.6400000  
O 12.1850000   15.8070000   17.8160000  
C 12.7830000   16.8870000   17.2770000  
O 12.5190000   17.1920000   16.0870000  
O 18.4530000   20.8590000   19.5800000  
O 17.8980000   19.4610000   21.9310000  
H 13.6960000   16.6530000   20.0450000  
H 12.8020000   15.6080000   18.5270000  
H 14.2970000   19.3680000   16.8370000  
H 18.2720000   21.3860000   18.7690000  
H 18.5450000   20.1900000   21.7480000  
C 16.7400000   20.8180000   17.2540000  
C 16.4720000   22.2100000   17.3260000  
C 16.5930000   23.0810000   16.2600000  
C 16.9980000   22.5810000   15.0360000  
C 17.2370000   21.1870000   14.8890000  
C 17.1200000   20.3310000   15.9800000  
C 15.7950000   22.9300000   18.3500000  
C 15.4940000   24.2320000   17.8350000  
N 16.1930000   24.3890000   16.6030000  
O 14.2670000   24.8590000   19.7980000  
C 14.7800000   25.2810000   18.6270000  
O 14.6240000   26.4070000   18.2020000  
O 17.6200000   20.8510000   13.6010000  
O 17.4920000   18.9970000   15.8640000  
H 15.4680000   22.5690000   19.2720000  
H 14.4420000   23.9550000   19.8940000  
H 16.2640000   25.2360000   16.0640000  
H 17.9060000   19.8920000   13.5420000  
H 17.3690000   18.5360000   16.6500000  
H 17.0380000   23.2950000   14.2160000  
