76
001 
C 12.0400000   24.5920000   19.8800000  
C 10.7180000   24.3980000   20.4790000  
C 10.4260000   23.2930000   21.1770000  
C 11.3320000   22.2890000   21.3790000  
C 12.6220000   22.3240000   20.8770000  
C 13.1130000   23.4770000   20.1800000  
C  9.2130000   22.8670000   21.8020000  
C  9.3820000   21.6070000   22.3500000  
N 10.7610000   21.3560000   22.1460000  
O  7.3150000   21.7050000   23.4710000  
C  8.4690000   20.9580000   23.3350000  
O  8.7220000   20.0320000   24.0090000  
O 14.2420000   23.5800000   19.7770000  
O 12.3330000   25.5330000   19.1620000  
H 10.0110000   25.2170000   20.3110000  
H  8.3020000   23.4910000   21.9470000  
H  7.5760000   22.5580000   23.1600000  
H 11.2340000   20.6160000   22.5720000  
C 13.4450000   21.0830000   21.1410000  
C 13.9440000   20.2290000   20.1890000  
C 14.7940000   19.1540000   20.4080000  
C 15.2490000   18.8780000   21.7330000  
C 14.7920000   19.7870000   22.7500000  
C 13.9350000   20.8230000   22.4600000  
C 13.9410000   20.4010000   18.7740000  
C 14.8080000   19.4160000   18.2260000  
N 15.3130000   18.6350000   19.2870000  
O 14.5760000   20.2870000   15.9970000  
C 15.1590000   19.3780000   16.8060000  
O 15.8880000   18.5450000   16.2890000  
O 15.1690000   19.6130000   24.0230000  
O 13.4770000   21.6100000   23.5090000  
H 13.5010000   21.2090000   18.2220000  
H 14.0670000   20.7910000   16.6360000  
H 15.8680000   17.7760000   19.2560000  
H 15.7260000   18.8690000   24.1140000  
H 13.4770000   21.0360000   24.3610000  
C 16.1920000   17.7410000   22.0020000  
C 17.4530000   17.6860000   21.3380000  
C 18.2070000   16.5480000   21.4570000  
C 17.9050000   15.4690000   22.3080000  
C 16.6180000   15.4600000   22.9490000  
C 15.8210000   16.6120000   22.8550000  
C 18.1950000   18.6220000   20.4840000  
C 19.3580000   17.9820000   20.1860000  
N 19.3770000   16.7000000   20.7270000  
O 20.1020000   19.8390000   18.8670000  
C 20.3860000   18.5340000   19.2600000  
O 21.3400000   17.9380000   18.8030000  
O 16.2150000   14.4020000   23.6920000  
O 14.6220000   16.5260000   23.4300000  
H 18.0790000   19.7110000   20.3100000  
H 19.5780000   20.2080000   19.5910000  
H 20.2000000   16.0300000   20.6890000  
H 16.7370000   13.6100000   23.3970000  
H 14.6520000   15.7700000   24.0330000  
C 18.8330000   14.2970000   22.3510000  
C 19.3130000   13.8310000   23.5810000  
C 19.9970000   12.6730000   23.7180000  
C 20.3430000   11.8800000   22.6970000  
C 19.8030000   12.1950000   21.4300000  
C 19.2260000   13.4340000   21.2330000  
C 19.3450000   14.4480000   24.8600000  
C 20.0320000   13.6140000   25.7400000  
N 20.3980000   12.4720000   25.0200000  
O 19.9660000   15.1770000   27.6240000  
C 20.4030000   13.9530000   27.1250000  
O 21.0710000   13.1970000   27.8220000  
O 20.0600000   11.3640000   20.3750000  
O 18.7060000   13.7620000   19.9510000  
H 19.1310000   15.5050000   25.0050000  
H 19.2890000   15.4570000   26.9740000  
H 21.0000000   11.7530000   25.3790000  
H 19.6260000   11.7730000   19.6050000  
H 17.7470000   13.8160000   19.8990000  
H 20.9270000   11.0370000   22.8730000  
