76
001 
C 12.2440000   12.5840000   25.5120000  
C 12.8800000   11.3800000   24.8970000  
C 13.7570000   11.5010000   23.8540000  
C 14.2310000   12.7400000   23.4450000  
C 13.8100000   13.9790000   23.9030000  
C 12.7180000   14.0060000   24.9490000  
C 14.3690000   10.5280000   22.9820000  
C 15.1340000   11.1870000   22.0520000  
N 14.9330000   12.5640000   22.2700000  
O 16.4320000    9.3350000   21.1210000  
C 16.1800000   10.6360000   21.1190000  
O 16.6980000   11.4040000   20.3360000  
O 12.2270000   15.0500000   25.3670000  
O 11.2410000   12.4880000   26.2330000  
H 12.3180000   10.4990000   25.1930000  
H 14.3460000    9.4740000   23.2250000  
H 15.8650000    8.9810000   21.8710000  
H 15.3720000   13.2970000   21.7650000  
C 14.4460000   15.1880000   23.3170000  
C 13.9050000   15.7000000   22.1220000  
C 14.3670000   16.8530000   21.5410000  
C 15.3890000   17.6630000   22.0240000  
C 16.0830000   17.0800000   23.2090000  
C 15.5820000   15.8870000   23.7980000  
C 12.8550000   15.2130000   21.2750000  
C 12.7740000   16.1300000   20.2330000  
N 13.7050000   17.1650000   20.3850000  
O 10.7200000   15.2180000   19.4870000  
C 11.6580000   16.0930000   19.2400000  
O 11.5470000   16.8670000   18.2990000  
O 17.0650000   17.6880000   23.8030000  
O 16.1520000   15.4600000   24.9740000  
H 12.2010000   14.3420000   21.4560000  
H 11.0950000   14.6850000   20.2060000  
H 13.8910000   18.0160000   19.8780000  
H 17.2730000   18.4290000   23.2500000  
H 16.5760000   16.2360000   25.3040000  
C 15.8270000   18.9370000   21.4180000  
C 15.7190000   20.1010000   22.1270000  
C 16.2290000   21.2960000   21.7220000  
C 16.8500000   21.5340000   20.5010000  
C 17.0250000   20.3160000   19.7380000  
C 16.4900000   19.0810000   20.2050000  
C 15.2880000   20.3770000   23.4590000  
C 15.3770000   21.7390000   23.6940000  
N 16.1240000   22.2700000   22.6830000  
O 14.0780000   21.6520000   25.6560000  
C 14.8010000   22.4670000   24.8510000  
O 15.1100000   23.6050000   25.2420000  
O 17.5010000   20.3870000   18.4470000  
O 16.7560000   17.9600000   19.5070000  
H 14.7290000   19.7020000   24.1300000  
H 13.7750000   20.8960000   25.1650000  
H 16.3400000   23.2860000   22.6870000  
H 17.6810000   21.3100000   18.2640000  
H 17.4390000   18.1270000   18.8580000  
C 17.3890000   22.8670000   20.0850000  
C 18.7190000   23.1990000   20.0120000  
C 19.2240000   24.3400000   19.4580000  
C 18.4290000   25.3310000   18.9870000  
C 17.0640000   25.1210000   19.1030000  
C 16.5470000   23.8790000   19.5790000  
C 19.8480000   22.3220000   20.1590000  
C 20.9820000   22.9840000   19.6910000  
N 20.5400000   24.2340000   19.1990000  
O 22.6010000   21.3380000   20.2520000  
C 22.3690000   22.5720000   19.7460000  
O 23.2690000   23.2570000   19.2940000  
O 16.1580000   26.0020000   18.6300000  
O 15.1690000   23.7280000   19.7280000  
H 19.9040000   21.2910000   20.6020000  
H 21.7670000   21.0240000   20.4810000  
H 21.0700000   25.0060000   18.7840000  
H 15.2970000   25.5630000   18.5680000  
H 14.8300000   23.0380000   20.2880000  
H 18.8910000   26.1080000   18.3810000  
