76
001 
C 12.2280000   21.6380000   27.8040000  
C 12.4070000   22.9760000   27.2250000  
C 13.1740000   23.2020000   26.1670000  
C 13.7300000   22.1420000   25.3950000  
C 13.6310000   20.8340000   25.7170000  
C 13.0030000   20.4770000   26.9870000  
C 13.2380000   24.3440000   25.2830000  
C 14.0260000   23.9960000   24.1670000  
N 14.2750000   22.6480000   24.2440000  
O 14.2270000   26.1530000   23.3770000  
C 14.4520000   24.8530000   23.0670000  
O 14.9980000   24.4760000   22.0500000  
O 12.8980000   19.3080000   27.3050000  
O 11.4480000   21.3370000   28.6840000  
H 11.7570000   23.7740000   27.6450000  
H 12.7830000   25.3090000   25.4130000  
H 13.8440000   26.2260000   24.2300000  
H 14.6190000   22.0500000   23.5130000  
C 14.2700000   19.9360000   24.7670000  
C 15.5600000   19.5070000   24.8760000  
C 16.1160000   18.8260000   23.8360000  
C 15.4780000   18.6220000   22.5460000  
C 14.1140000   18.9450000   22.5710000  
C 13.5200000   19.5940000   23.6550000  
C 16.6790000   19.7070000   25.7920000  
C 17.8330000   19.2480000   25.2110000  
N 17.5130000   18.8130000   23.9480000  
O 19.1990000   19.7210000   27.0650000  
C 19.1650000   19.1980000   25.8380000  
O 20.1050000   18.6310000   25.2980000  
O 13.3910000   18.7290000   21.4450000  
O 12.1870000   19.8920000   23.5470000  
H 16.6020000   20.2430000   26.7430000  
H 18.3820000   20.2410000   27.1220000  
H 18.1400000   18.2200000   23.3150000  
H 13.9500000   18.4390000   20.7110000  
H 11.8130000   19.4570000   22.8270000  
C 16.1340000   18.0750000   21.3330000  
C 16.4290000   16.6880000   21.2550000  
C 16.7380000   16.1330000   20.0560000  
C 17.1420000   16.8290000   18.8960000  
C 16.8940000   18.2020000   18.9790000  
C 16.2980000   18.8270000   20.1620000  
C 16.4870000   15.6630000   22.2710000  
C 16.7870000   14.4480000   21.6300000  
N 16.9280000   14.7110000   20.2580000  
O 16.5510000   13.1060000   23.5310000  
C 16.7550000   13.1080000   22.1850000  
O 16.7630000   12.1120000   21.5070000  
O 17.2980000   19.0590000   17.9820000  
O 15.9530000   20.1660000   20.1120000  
H 16.2060000   15.7250000   23.2930000  
H 16.7040000   14.0360000   23.6970000  
H 16.8550000   14.0300000   19.5000000  
H 17.3530000   18.5400000   17.1320000  
H 16.1200000   20.5720000   19.2440000  
C 17.6520000   16.1660000   17.6540000  
C 16.8940000   15.1800000   16.9410000  
C 17.3450000   14.8170000   15.7130000  
C 18.5530000   15.1840000   15.1640000  
C 19.3260000   16.0800000   15.9100000  
C 18.8650000   16.5710000   17.1150000  
C 15.6680000   14.4630000   17.1270000  
C 15.5320000   13.5570000   16.0740000  
N 16.5310000   13.7780000   15.1700000  
O 13.3450000   12.8190000   16.6200000  
C 14.3730000   12.6820000   15.7400000  
O 14.3300000   11.7670000   14.9650000  
O 20.5330000   16.4180000   15.4380000  
O 19.6710000   17.4270000   17.7730000  
H 15.0090000   14.6200000   18.0260000  
H 13.5510000   13.6250000   17.1220000  
H 16.6300000   13.2050000   14.3350000  
H 21.0850000   16.6120000   16.2240000  
H 19.1650000   17.8510000   18.5030000  
H 18.8760000   14.7030000   14.2420000  
