76
001 
C 10.8670000   17.7950000   15.8120000  
C  9.9340000   18.7290000   16.3590000  
C  9.9560000   19.2190000   17.6410000  
C 10.9620000   18.9070000   18.5040000  
C 12.0760000   18.1870000   18.0490000  
C 12.1080000   17.4540000   16.7880000  
C  9.2070000   20.2550000   18.2220000  
C  9.7610000   20.5790000   19.5160000  
N 10.8720000   19.7230000   19.6000000  
O  8.1920000   22.1840000   20.1890000  
C  9.4080000   21.5980000   20.4970000  
O 10.1470000   22.0120000   21.3980000  
O 12.9400000   16.6030000   16.4880000  
O 10.7210000   17.3210000   14.7000000  
H  9.0620000   18.9560000   15.7500000  
H  8.3750000   20.7530000   17.7980000  
H  8.0260000   21.5950000   19.3790000  
H 11.5320000   19.6910000   20.2600000  
C 13.1480000   18.0030000   19.0480000  
C 12.9680000   17.3460000   20.2440000  
C 13.9820000   17.3030000   21.1730000  
C 15.2950000   17.7120000   20.9270000  
C 15.4650000   18.3200000   19.6960000  
C 14.4480000   18.4610000   18.7420000  
C 11.7960000   16.6840000   20.8230000  
C 12.2240000   16.2260000   22.1380000  
N 13.6210000   16.5350000   22.2830000  
O 10.1670000   15.2230000   22.6000000  
C 11.4180000   15.4280000   23.0700000  
O 11.7710000   15.0630000   24.1520000  
O 16.6990000   18.8430000   19.4340000  
O 14.7330000   19.1860000   17.6300000  
H 10.9090000   16.4100000   20.2470000  
H 10.1170000   15.6930000   21.7210000  
H 14.1260000   16.2530000   23.1050000  
H 17.2490000   18.6300000   20.2150000  
H 15.3940000   19.8620000   17.9070000  
C 16.3710000   17.7510000   21.9560000  
C 17.5620000   16.9920000   21.8410000  
C 18.5330000   17.0990000   22.8320000  
C 18.5500000   17.9420000   23.9820000  
C 17.4000000   18.7210000   24.0280000  
C 16.3550000   18.6800000   23.0520000  
C 18.0030000   16.0130000   20.8530000  
C 19.2990000   15.6230000   21.3370000  
N 19.6620000   16.3430000   22.5270000  
O 19.5040000   14.0530000   19.5490000  
C 20.0910000   14.6320000   20.6360000  
O 21.1300000   14.1790000   21.0550000  
O 17.2310000   19.5530000   25.1350000  
O 15.3730000   19.5900000   23.0990000  
H 17.5020000   15.6870000   19.9220000  
H 18.5290000   14.3190000   19.4930000  
H 20.4710000   16.2880000   23.1360000  
H 17.8190000   19.2340000   25.8780000  
H 15.4520000   20.0980000   23.9490000  
C 19.6960000   18.0450000   24.8590000  
C 20.4690000   19.1890000   24.9200000  
C 21.4790000   19.3580000   25.8640000  
C 21.8000000   18.3410000   26.7870000  
C 21.0790000   17.1770000   26.6990000  
C 20.0620000   16.9760000   25.7680000  
C 20.3880000   20.4880000   24.2310000  
C 21.4860000   21.2500000   24.6550000  
N 22.1130000   20.6020000   25.7010000  
O 20.9260000   23.2220000   23.4000000  
C 21.7850000   22.6490000   24.1920000  
O 22.7040000   23.3880000   24.6030000  
O 21.2950000   16.1800000   27.5710000  
O 19.2990000   15.8520000   25.8210000  
H 19.6970000   20.8740000   23.5190000  
H 20.1920000   22.5440000   23.3450000  
H 22.8770000   20.9020000   26.3030000  
H 20.6560000   15.4570000   27.4670000  
H 18.4980000   15.9340000   25.3370000  
H 22.5130000   18.5630000   27.5330000  
