76
001 
C 11.9950000   11.8210000   22.9910000  
C 11.8060000   11.2370000   21.6240000  
C 12.1710000   12.0360000   20.5450000  
C 12.8250000   13.2550000   20.6620000  
C 13.4120000   13.7640000   21.8280000  
C 12.9550000   13.1210000   23.1150000  
C 12.0820000   11.7400000   19.1170000  
C 12.6880000   12.8070000   18.4410000  
N 13.1770000   13.6260000   19.4530000  
O 12.1420000   12.1240000   16.2360000  
C 12.7650000   13.0120000   17.0000000  
O 13.3060000   13.9740000   16.4530000  
O 13.2550000   13.6170000   24.1860000  
O 11.4220000   11.3420000   23.9650000  
H 11.2600000   10.3190000   21.4890000  
H 11.5450000   10.9440000   18.6760000  
H 11.8940000   11.4260000   16.8800000  
H 13.6760000   14.5040000   19.3490000  
C 14.3020000   14.9190000   21.7200000  
C 13.7220000   16.1050000   21.3180000  
C 14.4440000   17.2250000   21.0790000  
C 15.7810000   17.3110000   21.3170000  
C 16.4580000   16.1110000   21.6860000  
C 15.7330000   14.9050000   21.8520000  
C 12.3130000   16.4070000   20.9890000  
C 12.2830000   17.6860000   20.4580000  
N 13.6210000   18.2380000   20.5210000  
O 10.0080000   17.6070000   19.9250000  
C 11.1050000   18.4240000   19.9250000  
O 11.0350000   19.5150000   19.4880000  
O 17.8170000   16.0360000   21.7530000  
O 16.3800000   13.7360000   22.0310000  
H 11.4950000   15.7310000   21.2250000  
H 10.2800000   16.7600000   20.4350000  
H 13.9670000   19.1750000   20.3940000  
H 18.1160000   16.8800000   21.4240000  
H 17.2500000   13.7430000   21.8280000  
C 16.4710000   18.6440000   21.2630000  
C 16.1270000   19.6420000   22.2240000  
C 16.9260000   20.7830000   22.3090000  
C 18.0420000   21.0460000   21.4960000  
C 18.2460000   20.1630000   20.3940000  
C 17.4550000   18.9470000   20.2690000  
C 15.3870000   19.6250000   23.5020000  
C 15.7750000   20.7910000   24.2230000  
N 16.7080000   21.5520000   23.4530000  
O 14.6120000   20.2020000   26.1700000  
C 15.4080000   21.1460000   25.5810000  
O 15.7970000   22.2360000   26.1200000  
O 19.0890000   20.5260000   19.3190000  
O 17.8370000   17.9390000   19.4240000  
H 14.8970000   18.7800000   23.9640000  
H 14.5970000   19.4400000   25.5630000  
H 17.2340000   22.3270000   23.7670000  
H 19.4720000   21.4480000   19.4680000  
H 18.5000000   18.2610000   18.7890000  
C 18.7070000   22.3720000   21.5660000  
C 19.7060000   22.6000000   22.5070000  
C 20.1750000   23.8630000   22.6800000  
C 19.7360000   24.8940000   21.7940000  
C 18.8460000   24.6210000   20.7870000  
C 18.2800000   23.3750000   20.6780000  
C 20.3080000   21.8270000   23.5760000  
C 21.1120000   22.6850000   24.2730000  
N 21.0750000   23.9500000   23.7160000  
O 21.7260000   20.9580000   25.7920000  
C 21.8430000   22.2950000   25.4970000  
O 22.5210000   23.0450000   26.1410000  
O 18.4600000   25.6390000   20.0320000  
O 17.2420000   23.1500000   19.8980000  
H 20.0310000   20.8040000   23.7640000  
H 21.2190000   20.5650000   25.0670000  
H 21.5380000   24.8120000   24.0130000  
H 18.2670000   25.2220000   19.1630000  
H 16.7180000   22.3850000   20.2960000  
H 20.0160000   25.9360000   22.0450000  
