76
001 
C 11.7950000   12.2690000   24.1620000  
C 12.8910000   11.3090000   24.5280000  
C 14.2350000   11.7190000   24.4990000  
C 14.6060000   12.9030000   23.9620000  
C 13.7370000   13.8990000   23.4950000  
C 12.2390000   13.6270000   23.5400000  
C 15.4240000   11.0350000   24.8400000  
C 16.4980000   11.7980000   24.5190000  
N 15.9860000   12.9710000   23.9810000  
O 17.8790000   10.0080000   25.1450000  
C 17.8720000   11.2950000   24.7440000  
O 18.9300000   11.9270000   24.5500000  
O 11.3620000   14.3810000   23.1320000  
O 10.6090000   12.0690000   24.4340000  
H 12.5630000   10.3230000   24.9420000  
H 15.3330000    9.9790000   25.0970000  
H 16.9850000    9.8420000   25.4900000  
H 16.5110000   13.8750000   23.7710000  
C 14.3420000   15.1630000   22.9420000  
C 14.4250000   15.3680000   21.4960000  
C 14.8810000   16.5180000   20.9870000  
C 15.3400000   17.6220000   21.7620000  
C 15.2080000   17.4500000   23.1730000  
C 14.6270000   16.3290000   23.6990000  
C 14.0200000   14.5000000   20.4360000  
C 14.2770000   15.2230000   19.2590000  
N 14.8930000   16.4570000   19.5630000  
O 13.1430000   13.6210000   17.9180000  
C 13.8690000   14.7590000   17.9250000  
O 14.0960000   15.4610000   16.9110000  
O 15.5310000   18.5430000   23.9110000  
O 14.2720000   16.3350000   25.0070000  
H 13.4270000   13.5800000   20.5770000  
H 13.3050000   13.1840000   18.7080000  
H 15.0330000   17.1700000   18.8850000  
H 16.1660000   19.0020000   23.3580000  
H 14.0500000   17.3060000   25.1940000  
C 15.8050000   18.8480000   21.1790000  
C 15.0360000   19.9770000   21.2950000  
C 15.5740000   21.1720000   20.8100000  
C 16.7920000   21.3520000   20.1510000  
C 17.5240000   20.1670000   19.9220000  
C 16.9590000   18.9450000   20.3210000  
C 13.7710000   20.3580000   21.9050000  
C 13.6850000   21.7670000   21.8660000  
N 14.7730000   22.2440000   21.1270000  
O 11.5430000   22.0420000   22.8170000  
C 12.6730000   22.6540000   22.3610000  
O 12.8100000   23.8490000   22.3800000  
O 18.6250000   20.1440000   19.1350000  
O 17.5980000   17.7560000   20.1420000  
H 13.0370000   19.6870000   22.3460000  
H 11.7390000   21.0840000   22.8950000  
H 15.0740000   23.2340000   21.1360000  
H 18.8580000   21.0230000   18.6850000  
H 18.4740000   17.9140000   19.6780000  
C 17.3670000   22.6640000   19.7150000  
C 18.4940000   23.2280000   20.3620000  
C 18.8420000   24.5200000   20.1790000  
C 18.1720000   25.3890000   19.2880000  
C 17.1640000   24.8810000   18.5460000  
C 16.6960000   23.5720000   18.7440000  
C 19.4350000   22.6260000   21.2820000  
C 20.3460000   23.6440000   21.6400000  
N 19.9270000   24.8170000   20.9970000  
O 22.0090000   22.2600000   22.6800000  
C 21.5660000   23.5300000   22.4890000  
O 22.2210000   24.4550000   22.9270000  
O 16.5450000   25.7190000   17.6070000  
O 15.5370000   23.1490000   18.0940000  
H 19.5780000   21.4920000   21.4360000  
H 21.3270000   21.7820000   22.1430000  
H 20.2880000   25.7570000   21.2190000  
H 15.7940000   25.2420000   17.0780000  
H 15.4470000   22.1960000   17.9160000  
H 18.4870000   26.3910000   19.1150000  
