76
001 
C 10.8960000   18.0380000   15.9150000  
C  9.8190000   18.9580000   16.3660000  
C  9.8690000   19.5540000   17.5760000  
C 10.9100000   19.4990000   18.5260000  
C 12.0320000   18.7810000   18.2110000  
C 12.1330000   17.9020000   16.9640000  
C  8.9310000   20.4120000   18.2470000  
C  9.4110000   20.8340000   19.4560000  
N 10.6830000   20.3710000   19.5770000  
O  7.6460000   22.3570000   20.0240000  
C  8.7260000   21.7090000   20.4800000  
O  9.2400000   21.8970000   21.5630000  
O 13.0010000   17.0570000   16.8380000  
O 10.8690000   17.4000000   14.8410000  
H  9.0000000   19.1240000   15.6350000  
H  7.9770000   20.6440000   17.8440000  
H  7.5010000   22.0130000   19.0630000  
H 11.2000000   20.4030000   20.4460000  
C 13.0650000   18.8580000   19.2090000  
C 12.9550000   18.1710000   20.4360000  
C 14.0000000   18.1340000   21.2610000  
C 15.2790000   18.6870000   21.0540000  
C 15.3720000   19.4470000   19.8460000  
C 14.2950000   19.5500000   18.9930000  
C 11.9440000   17.3850000   21.0750000  
C 12.4910000   16.8780000   22.2540000  
N 13.7740000   17.3990000   22.3580000  
O 10.7380000   15.3680000   22.7740000  
C 11.9180000   15.8230000   23.1630000  
O 12.4620000   15.4150000   24.2080000  
O 16.5690000   20.0000000   19.5320000  
O 14.4550000   20.2960000   17.8580000  
H 11.1050000   17.0050000   20.6510000  
H 10.6680000   15.6090000   21.8330000  
H 14.4010000   17.2720000   23.1420000  
H 17.1680000   19.6690000   20.2390000  
H 14.8580000   21.1370000   18.1110000  
C 16.5600000   18.4120000   21.8700000  
C 17.7360000   17.7820000   21.3580000  
C 18.6690000   17.3350000   22.1950000  
C 18.5760000   17.5240000   23.6070000  
C 17.5880000   18.3500000   24.1040000  
C 16.5430000   18.7080000   23.2530000  
C 18.1070000   17.2560000   20.0520000  
C 19.2570000   16.5160000   20.2210000  
N 19.6530000   16.6120000   21.5970000  
O 19.6430000   16.2560000   17.8850000  
C 20.0800000   15.9710000   19.1250000  
O 21.1710000   15.4470000   19.2760000  
O 17.5360000   18.7600000   25.3870000  
O 15.4910000   19.3880000   23.8140000  
H 17.6110000   17.3110000   19.0830000  
H 18.7140000   16.6710000   18.0160000  
H 20.5740000   16.3430000   22.0240000  
H 18.3850000   18.5510000   25.7900000  
H 15.7470000   19.5320000   24.7330000  
C 19.6690000   17.0070000   24.5610000  
C 20.4690000   17.9450000   25.2530000  
C 21.5170000   17.5120000   26.0340000  
C 21.7760000   16.2240000   26.2040000  
C 20.9930000   15.2570000   25.5890000  
C 19.8800000   15.6240000   24.7800000  
C 20.3930000   19.4260000   25.3520000  
C 21.4120000   19.7640000   26.2420000  
N 22.0990000   18.6360000   26.6230000  
O 21.0410000   22.1010000   26.2090000  
C 21.8100000   21.1040000   26.5700000  
O 22.9220000   21.3730000   27.0520000  
O 21.2490000   13.9430000   25.8470000  
O 19.0660000   14.7380000   24.0960000  
H 19.6790000   20.1020000   24.8700000  
H 20.3530000   21.6610000   25.6700000  
H 23.0170000   18.6590000   26.9900000  
H 20.6060000   13.5030000   25.2290000  
H 18.5630000   15.2730000   23.4590000  
H 22.5670000   15.8400000   26.8420000  
