76
001 
C 16.2760000   23.5590000   27.0630000  
C 14.8740000   23.4560000   27.7110000  
C 14.0510000   22.4450000   27.3070000  
C 14.3930000   21.4690000   26.3680000  
C 15.6200000   21.5060000   25.6890000  
C 16.7340000   22.3980000   26.1510000  
C 12.7980000   22.0150000   27.8510000  
C 12.4040000   20.8310000   27.2320000  
N 13.4210000   20.5250000   26.3100000  
O 10.3420000   20.6950000   28.3840000  
C 11.2460000   20.0280000   27.6030000  
O 11.0170000   18.8930000   27.1910000  
O 17.8740000   22.3410000   25.7520000  
O 17.0830000   24.4890000   27.3320000  
H 14.6830000   24.1910000   28.4810000  
H 12.2160000   22.5080000   28.5930000  
H 10.6610000   21.5430000   28.3750000  
H 13.5050000   19.7710000   25.6680000  
C 15.7900000   20.5540000   24.6000000  
C 15.7380000   21.0600000   23.2580000  
C 15.8510000   20.2320000   22.1880000  
C 15.8730000   18.8080000   22.2800000  
C 15.8890000   18.3010000   23.5950000  
C 15.9510000   19.1280000   24.7630000  
C 15.6480000   22.3780000   22.8030000  
C 15.8570000   22.3130000   21.4200000  
N 16.0200000   20.9220000   20.9920000  
O 15.9860000   24.6350000   21.2030000  
C 16.1660000   23.4860000   20.5220000  
O 16.3240000   23.3960000   19.3470000  
O 15.9350000   16.9310000   23.7650000  
O 15.9420000   18.5130000   25.9970000  
H 15.4700000   23.2890000   23.4050000  
H 16.1840000   24.4790000   22.1720000  
H 16.3160000   20.5920000   20.0990000  
H 15.6170000   16.6040000   22.9240000  
H 15.8090000   19.1150000   26.7120000  
C 15.9450000   17.8660000   21.1040000  
C 17.1350000   17.7610000   20.3100000  
C 17.0300000   16.9570000   19.2740000  
C 15.9210000   16.1740000   18.8060000  
C 14.7620000   16.3660000   19.5800000  
C 14.7940000   17.2190000   20.6920000  
C 18.5310000   18.1380000   20.4690000  
C 19.1970000   17.5950000   19.3800000  
N 18.3070000   16.7650000   18.7220000  
O 21.3880000   18.5970000   19.7700000  
C 20.6070000   17.8070000   18.9710000  
O 21.0770000   17.2780000   17.9650000  
O 13.5910000   15.7400000   19.2760000  
O 13.6490000   17.2540000   21.4580000  
H 19.0030000   18.7940000   21.2600000  
H 20.7620000   18.9010000   20.4610000  
H 18.5190000   16.2030000   17.8540000  
H 13.7730000   15.3380000   18.4200000  
H 12.9980000   16.7970000   20.9130000  
C 16.0250000   15.2670000   17.6960000  
C 15.8790000   13.8590000   17.8510000  
C 15.9620000   12.9680000   16.8310000  
C 16.2550000   13.3890000   15.5190000  
C 16.3390000   14.7970000   15.2720000  
C 16.2540000   15.7220000   16.3570000  
C 15.7710000   13.1010000   19.0890000  
C 15.6690000   11.7120000   18.7100000  
N 15.7780000   11.6600000   17.3100000  
O 15.3180000   10.8210000   20.9310000  
C 15.4590000   10.5510000   19.6000000  
O 15.3140000    9.4030000   19.1510000  
O 16.1720000   15.2580000   13.9800000  
O 16.2570000   17.0130000   15.9850000  
H 15.5820000   13.4070000   20.1300000  
H 15.4370000   11.8220000   20.8450000  
H 15.9600000   10.7670000   16.8270000  
H 16.0070000   16.1760000   13.9800000  
H 16.5670000   17.5230000   16.7200000  
H 16.1340000   12.6730000   14.7250000  
