76
001 
C 16.1620000   16.1600000   28.8680000  
C 15.6120000   17.3160000   29.6470000  
C 15.2150000   18.4940000   29.0490000  
C 15.3090000   18.7020000   27.6910000  
C 15.7030000   17.7240000   26.7950000  
C 16.1600000   16.4010000   27.2530000  
C 14.5950000   19.6820000   29.5840000  
C 14.1910000   20.5050000   28.5470000  
N 14.7250000   19.9740000   27.3940000  
O 12.5580000   21.6840000   29.8470000  
C 13.3000000   21.6350000   28.7260000  
O 13.1470000   22.4470000   27.8660000  
O 16.5550000   15.5160000   26.5090000  
O 16.6280000   15.1610000   29.3610000  
H 15.5560000   17.0900000   30.7000000  
H 14.4350000   19.9120000   30.5930000  
H 12.5690000   20.7890000   30.1390000  
H 14.5310000   20.3120000   26.4790000  
C 15.5990000   18.0440000   25.3690000  
C 16.7940000   18.2660000   24.7400000  
C 16.8560000   18.4750000   23.4080000  
C 15.7020000   18.4050000   22.5970000  
C 14.4700000   18.1110000   23.2450000  
C 14.4080000   18.0230000   24.6450000  
C 18.2320000   18.1970000   25.1550000  
C 19.0110000   18.4620000   24.0180000  
N 18.1370000   18.7130000   22.9290000  
O 21.1750000   17.8540000   24.9210000  
C 20.4820000   18.1810000   23.8020000  
O 21.1020000   18.2480000   22.7460000  
O 13.2430000   18.0320000   22.5990000  
O 13.2590000   18.0410000   25.2920000  
H 18.6140000   17.9220000   26.1040000  
H 20.6110000   17.9490000   25.7080000  
H 18.3380000   18.7300000   21.9160000  
H 13.4460000   18.2580000   21.6630000  
H 13.5430000   17.6390000   26.1550000  
C 15.7630000   18.6680000   21.1240000  
C 16.0990000   17.6060000   20.2480000  
C 16.1790000   17.8450000   18.9010000  
C 15.6820000   19.0030000   18.2200000  
C 15.2850000   20.0530000   19.0890000  
C 15.4170000   19.9260000   20.4990000  
C 16.4690000   16.2210000   20.4600000  
C 16.7810000   15.7420000   19.1630000  
N 16.4750000   16.6870000   18.2330000  
O 17.3740000   13.5970000   19.9870000  
C 17.2590000   14.3440000   18.8580000  
O 17.5310000   13.7680000   17.7810000  
O 14.9910000   21.2690000   18.5680000  
O 15.0700000   20.9410000   21.2770000  
H 16.5140000   15.7000000   21.3720000  
H 16.9520000   14.0150000   20.7820000  
H 16.5990000   16.6560000   17.2690000  
H 14.9600000   21.0300000   17.6170000  
H 15.0850000   21.8300000   20.7770000  
C 15.9360000   19.0870000   16.7360000  
C 15.1080000   18.5110000   15.7310000  
C 15.3240000   18.6250000   14.4190000  
C 16.3930000   19.3340000   13.9410000  
C 17.2230000   19.9710000   14.8460000  
C 17.0430000   19.8760000   16.2470000  
C 13.8710000   17.8300000   15.9040000  
C 13.4320000   17.4970000   14.6320000  
N 14.3730000   17.9430000   13.7090000  
O 11.5630000   16.2720000   15.2950000  
C 12.3440000   16.5880000   14.2210000  
O 12.1760000   16.1940000   13.0580000  
O 18.2110000   20.7890000   14.3420000  
O 17.8210000   20.5480000   17.1200000  
H 13.3510000   17.6150000   16.8010000  
H 11.9150000   16.8350000   15.9630000  
H 14.3050000   17.9020000   12.7070000  
H 18.5720000   21.2970000   15.0660000  
H 17.4170000   20.1630000   17.8760000  
H 16.5850000   19.3450000   12.8780000  
