76
001 
C 11.4450000   20.7180000   15.8520000  
C 10.3940000   21.3830000   16.5030000  
C 10.3230000   21.4630000   17.8460000  
C 11.3130000   20.9420000   18.6810000  
C 12.4020000   20.3140000   18.2130000  
C 12.5780000   20.2210000   16.7300000  
C  9.3830000   22.1650000   18.7010000  
C  9.7100000   21.8750000   20.0090000  
N 10.9310000   21.2250000   19.9330000  
O  7.6820000   22.5570000   21.0870000  
C  8.9850000   22.2660000   21.2040000  
O  9.5200000   22.2730000   22.2580000  
O 13.6510000   19.9680000   16.1390000  
O 11.4600000   20.5260000   14.6500000  
H  9.5570000   21.7730000   15.8520000  
H  8.4930000   22.6720000   18.4000000  
H  7.4760000   22.5300000   20.1580000  
H 11.4820000   20.9700000   20.8080000  
C 13.4520000   19.8670000   19.1720000  
C 13.2530000   18.8680000   20.1740000  
C 14.2690000   18.3550000   20.9610000  
C 15.5920000   18.8690000   20.8890000  
C 15.8440000   19.9090000   19.9100000  
C 14.7750000   20.3870000   19.0620000  
C 12.0940000   18.1040000   20.6170000  
C 12.4860000   17.2130000   21.5880000  
N 13.8190000   17.4170000   21.8560000  
O 10.3350000   16.2590000   21.7960000  
C 11.5700000   16.3910000   22.3710000  
O 11.8520000   15.8780000   23.4160000  
O 17.0610000   20.4860000   19.9230000  
O 15.0320000   21.4190000   18.1490000  
H 11.1890000   18.0140000   20.0170000  
H 10.4210000   16.8940000   21.0420000  
H 14.3560000   16.8440000   22.4340000  
H 17.4910000   20.0260000   20.6730000  
H 15.8800000   21.7340000   18.3870000  
C 16.6190000   18.4890000   21.8820000  
C 17.1020000   17.1170000   21.9320000  
C 18.0410000   16.7380000   22.8420000  
C 18.4490000   17.5180000   23.8740000  
C 17.9640000   18.8480000   23.9130000  
C 17.1180000   19.2970000   22.9140000  
C 16.7790000   15.9180000   21.1770000  
C 17.6340000   14.8740000   21.6860000  
N 18.3710000   15.4230000   22.7680000  
O 17.0820000   13.2610000   20.0100000  
C 17.6680000   13.4820000   21.1970000  
O 18.1680000   12.6100000   21.8790000  
O 18.3510000   19.6810000   24.8820000  
O 16.6590000   20.6150000   22.8980000  
H 15.9700000   15.8490000   20.4410000  
H 16.6670000   14.0770000   19.7230000  
H 18.8350000   14.7720000   23.4380000  
H 18.9580000   19.1510000   25.3780000  
H 17.0320000   21.1600000   23.6230000  
C 19.2750000   16.9020000   25.0050000  
C 20.6080000   16.5080000   24.6720000  
C 21.4710000   16.0320000   25.6210000  
C 21.1320000   15.9090000   26.9370000  
C 19.8280000   16.2970000   27.3170000  
C 18.9390000   16.8060000   26.3680000  
C 21.3910000   16.7560000   23.4420000  
C 22.7090000   16.4330000   23.8100000  
N 22.7020000   15.8310000   25.0490000  
O 23.4760000   17.0310000   21.6130000  
C 23.8450000   16.4720000   22.7940000  
O 24.9240000   16.0120000   22.9600000  
O 19.5280000   16.2480000   28.6660000  
O 17.7070000   17.1880000   26.8280000  
H 21.1270000   17.2160000   22.4650000  
H 22.5630000   17.3460000   21.6820000  
H 23.4630000   15.4280000   25.5290000  
H 18.6320000   16.5160000   28.6540000  
H 17.2510000   17.7270000   26.1440000  
H 21.7560000   15.4820000   27.6700000  
