76
001 
C 12.2890000   11.6450000   23.7550000  
C 13.3080000   11.1360000   24.6900000  
C 14.2910000   11.9310000   25.1530000  
C 14.4650000   13.2940000   24.7750000  
C 13.6420000   13.9640000   23.9220000  
C 12.5000000   13.1670000   23.3810000  
C 15.5810000   11.5560000   25.7310000  
C 16.4410000   12.6960000   25.6960000  
N 15.6990000   13.7280000   25.1790000  
O 18.3410000   11.7110000   26.6680000  
C 17.8620000   12.7750000   26.0620000  
O 18.5870000   13.7410000   25.8000000  
O 11.6360000   13.6150000   22.6530000  
O 11.2980000   11.0110000   23.3810000  
H 13.4160000   10.0490000   24.8330000  
H 15.9230000   10.5470000   26.1000000  
H 17.4870000   11.1970000   26.8360000  
H 16.0320000   14.6670000   25.0340000  
C 14.2300000   15.1930000   23.4010000  
C 14.4410000   15.2800000   22.0150000  
C 14.9670000   16.3650000   21.4300000  
C 15.1500000   17.6250000   22.0690000  
C 14.7700000   17.6470000   23.4780000  
C 14.3530000   16.4440000   24.0810000  
C 14.2650000   14.3890000   20.9120000  
C 14.7890000   14.9570000   19.7670000  
N 15.1700000   16.2530000   20.1110000  
O 14.5610000   13.0220000   18.4520000  
C 14.9620000   14.3130000   18.4930000  
O 15.4990000   14.8910000   17.5970000  
O 14.9610000   18.7580000   24.2330000  
O 14.1190000   16.4380000   25.3930000  
H 13.7530000   13.4460000   20.9420000  
H 13.9860000   12.8940000   19.1730000  
H 15.8140000   16.8510000   19.6360000  
H 15.1350000   19.4570000   23.6330000  
H 14.3410000   17.3590000   25.7350000  
C 15.7700000   18.7980000   21.4210000  
C 15.0320000   19.9820000   21.3120000  
C 15.4670000   21.0500000   20.5960000  
C 16.7310000   21.2070000   19.9410000  
C 17.5430000   20.0310000   20.1180000  
C 17.0900000   18.7930000   20.7590000  
C 13.7360000   20.3150000   21.7760000  
C 13.4520000   21.6280000   21.4390000  
N 14.5270000   22.0840000   20.7050000  
O 11.6130000   22.0710000   22.9000000  
C 12.4370000   22.5620000   21.9210000  
O 12.2630000   23.6660000   21.4300000  
O 18.8280000   20.0900000   19.6010000  
O 17.8730000   17.6880000   20.6200000  
H 13.0830000   19.7150000   22.4000000  
H 11.7650000   21.1080000   23.0020000  
H 14.5830000   23.0480000   20.3120000  
H 18.8270000   20.8990000   19.0680000  
H 18.7790000   17.9260000   20.3700000  
C 17.1700000   22.3840000   19.1520000  
C 18.0830000   23.3170000   19.6730000  
C 18.5950000   24.3760000   19.0140000  
C 18.1580000   24.6480000   17.7020000  
C 17.2440000   23.7300000   17.0630000  
C 16.6760000   22.6740000   17.8050000  
C 18.8180000   23.2260000   20.8890000  
C 19.7200000   24.2710000   20.8890000  
N 19.5970000   24.9760000   19.7110000  
O 20.7110000   23.5520000   22.8590000  
C 20.7500000   24.4660000   21.8950000  
O 21.6000000   25.3120000   21.8390000  
O 16.8700000   23.8770000   15.7400000  
O 15.5130000   21.9520000   17.3630000  
H 18.6130000   22.4780000   21.7420000  
H 20.0190000   22.9680000   22.6400000  
H 20.1210000   25.8170000   19.4700000  
H 16.2270000   23.1740000   15.4150000  
H 15.1570000   21.3890000   18.0610000  
H 18.5290000   25.4440000   17.0910000  
