76
001 
C 16.1040000   22.8320000   27.8650000  
C 14.6650000   22.8820000   28.0740000  
C 13.7330000   22.3120000   27.3090000  
C 14.1510000   21.5690000   26.1580000  
C 15.4110000   21.2940000   25.8230000  
C 16.5100000   21.9290000   26.6060000  
C 12.2870000   22.3250000   27.3040000  
C 11.8740000   21.4230000   26.2640000  
N 12.9800000   21.0370000   25.5830000  
O  9.5910000   21.3210000   26.8680000  
C 10.5100000   20.9480000   25.9440000  
O 10.2520000   20.2300000   24.9910000  
O 17.6990000   21.7740000   26.2970000  
O 16.9590000   23.3730000   28.6230000  
H 14.3900000   23.5190000   28.9300000  
H 11.6610000   22.8380000   27.9940000  
H 10.0300000   21.8910000   27.5030000  
H 12.9250000   20.3530000   24.7630000  
C 15.6590000   20.3800000   24.7280000  
C 15.9590000   20.9110000   23.4600000  
C 16.0100000   20.1610000   22.4000000  
C 16.0490000   18.7790000   22.4480000  
C 15.8410000   18.1800000   23.7540000  
C 15.5990000   18.9990000   24.8450000  
C 16.0140000   22.2690000   22.9780000  
C 16.2500000   22.1670000   21.5860000  
N 16.1740000   20.8580000   21.2380000  
O 16.5790000   24.5010000   21.1290000  
C 16.4830000   23.2200000   20.6040000  
O 16.5980000   22.9910000   19.3640000  
O 16.0070000   16.7870000   23.9970000  
O 15.3910000   18.5020000   26.0620000  
H 15.8360000   23.0930000   23.5960000  
H 16.6510000   24.5120000   22.0710000  
H 16.1440000   20.4090000   20.3000000  
H 16.5690000   16.3960000   23.2770000  
H 15.3830000   17.5800000   26.0750000  
C 16.2390000   17.9320000   21.2290000  
C 17.4100000   17.1610000   21.0660000  
C 17.5420000   16.3010000   20.0250000  
C 16.6980000   16.2620000   18.9250000  
C 15.6700000   17.2460000   18.9950000  
C 15.3220000   17.9450000   20.1700000  
C 18.4720000   16.9350000   21.9910000  
C 19.2310000   15.9220000   21.4250000  
N 18.6320000   15.4840000   20.2430000  
O 21.0120000   16.2420000   22.9040000  
C 20.5570000   15.5610000   21.8260000  
O 21.2600000   14.7000000   21.3400000  
O 14.7990000   17.3480000   17.9390000  
O 14.1090000   18.5770000   20.2950000  
H 18.7670000   17.5770000   22.8810000  
H 20.3730000   16.9420000   23.1000000  
H 18.8530000   14.6810000   19.7470000  
H 15.0340000   16.7010000   17.2800000  
H 13.7090000   18.5740000   19.4470000  
C 16.8860000   15.3500000   17.7490000  
C 15.9140000   14.4310000   17.3250000  
C 16.0850000   13.5870000   16.2630000  
C 17.2540000   13.5160000   15.5760000  
C 18.2480000   14.4650000   15.8450000  
C 18.0540000   15.4260000   16.8700000  
C 14.5250000   14.1120000   17.8590000  
C 13.9630000   13.1230000   16.9880000  
N 14.9230000   12.8500000   16.0080000  
O 12.0890000   12.7660000   18.3200000  
C 12.6920000   12.4600000   17.1740000  
O 12.2230000   11.5750000   16.4380000  
O 19.3330000   14.5900000   15.0100000  
O 19.0380000   16.3450000   17.0440000  
H 14.0390000   14.4560000   18.8110000  
H 12.5550000   13.5750000   18.6590000  
H 14.6790000   12.4210000   15.1690000  
H 19.8410000   15.4060000   15.2550000  
H 19.0560000   16.6680000   17.9990000  
H 17.3220000   12.8800000   14.7470000  
