76
001 
C 13.4070000   14.6400000   27.9750000  
C 14.3760000   15.0560000   28.9580000  
C 15.3860000   15.9560000   28.6610000  
C 15.4660000   16.4830000   27.3500000  
C 14.5510000   16.2670000   26.3600000  
C 13.5380000   15.2020000   26.4970000  
C 16.3640000   16.6750000   29.4490000  
C 17.0510000   17.5370000   28.5200000  
N 16.4660000   17.3640000   27.2740000  
O 18.4070000   18.7550000   30.1020000  
C 18.1480000   18.5540000   28.8290000  
O 18.6630000   19.1980000   27.9050000  
O 12.8100000   14.8550000   25.5790000  
O 12.5400000   13.8270000   28.2310000  
H 14.1620000   14.6560000   29.9660000  
H 16.4820000   16.5690000   30.5010000  
H 17.7540000   18.3590000   30.7210000  
H 16.6340000   17.9360000   26.4420000  
C 14.8720000   16.9960000   25.1090000  
C 16.0490000   16.7530000   24.3860000  
C 16.2810000   17.4420000   23.2750000  
C 15.4740000   18.4360000   22.6590000  
C 14.2450000   18.6350000   23.3850000  
C 13.9860000   17.9480000   24.5390000  
C 17.1030000   15.8340000   24.5470000  
C 17.9200000   15.8990000   23.4470000  
N 17.4190000   17.0030000   22.6680000  
O 19.2590000   14.0530000   24.1050000  
C 19.0820000   15.0250000   23.2150000  
O 19.8240000   15.1280000   22.2630000  
O 13.4000000   19.5340000   22.8320000  
O 12.7620000   18.1510000   25.2320000  
H 17.2420000   15.1080000   25.3140000  
H 18.5460000   14.0730000   24.7350000  
H 17.7210000   17.2670000   21.6740000  
H 13.8580000   19.9340000   22.0710000  
H 12.4490000   17.3410000   25.7020000  
C 15.7750000   19.0110000   21.3640000  
C 15.8960000   18.2400000   20.1740000  
C 16.1550000   18.9310000   18.9840000  
C 16.4160000   20.2580000   18.8080000  
C 16.3980000   21.0180000   20.0160000  
C 16.0520000   20.3720000   21.2080000  
C 15.6770000   16.8280000   19.8710000  
C 16.0060000   16.7100000   18.5170000  
N 16.1630000   17.9880000   18.0090000  
O 15.3840000   14.3300000   18.2970000  
C 16.0470000   15.4140000   17.7290000  
O 16.4390000   15.3080000   16.5660000  
O 16.5930000   22.4000000   19.9340000  
O 16.0700000   21.1690000   22.3200000  
H 15.4480000   15.9960000   20.5080000  
H 14.9320000   14.6410000   19.1270000  
H 16.2860000   18.1310000   17.0360000  
H 16.8470000   22.7560000   19.0570000  
H 16.2820000   22.0120000   21.9380000  
C 16.4990000   20.8950000   17.4500000  
C 15.4210000   20.9620000   16.5380000  
C 15.5830000   21.3450000   15.2260000  
C 16.7790000   21.7970000   14.7060000  
C 17.8070000   21.9200000   15.5840000  
C 17.7700000   21.2910000   16.8420000  
C 14.0040000   20.7350000   16.7060000  
C 13.4470000   20.8350000   15.4110000  
N 14.4060000   21.3360000   14.5260000  
O 11.4070000   19.7380000   15.8180000  
C 12.0980000   20.4920000   14.9150000  
O 11.6380000   20.7850000   13.8270000  
O 18.9950000   22.2790000   15.0210000  
O 18.9010000   21.3060000   17.6160000  
H 13.4770000   20.5090000   17.5840000  
H 12.0780000   19.6090000   16.5690000  
H 14.3220000   21.5470000   13.5350000  
H 19.7100000   21.9800000   15.6070000  
H 18.6840000   21.1910000   18.5760000  
H 16.8810000   22.2080000   13.7050000  
