76
001 
C 11.8100000   22.7440000   17.1810000  
C 10.4850000   22.8890000   17.8250000  
C 10.2600000   22.3590000   19.0820000  
C 11.2430000   21.5980000   19.7070000  
C 12.5220000   21.3660000   19.1860000  
C 12.8860000   21.9050000   17.8400000  
C  9.1890000   22.3990000   20.0690000  
C  9.4800000   21.6100000   21.1460000  
N 10.8300000   21.2520000   20.9770000  
O  7.5250000   22.0660000   22.4560000  
C  8.7100000   21.4050000   22.3840000  
O  9.0980000   20.6950000   23.3180000  
O 13.9280000   21.6250000   17.2910000  
O 12.0800000   23.2760000   16.1220000  
H  9.7270000   23.5560000   17.3610000  
H  8.2200000   22.9090000   19.8040000  
H  7.7520000   22.8490000   21.9410000  
H 11.4720000   20.7900000   21.6660000  
C 13.4210000   20.5670000   19.9730000  
C 13.2010000   19.1540000   20.2010000  
C 14.0180000   18.3540000   20.9870000  
C 15.1860000   18.8800000   21.6640000  
C 15.3520000   20.3180000   21.5320000  
C 14.5140000   21.1480000   20.6800000  
C 12.2510000   18.3380000   19.5470000  
C 12.6710000   16.9990000   19.8390000  
N 13.7070000   16.9860000   20.8370000  
O 11.0040000   16.0310000   18.5490000  
C 12.1080000   15.8030000   19.2400000  
O 12.5830000   14.6790000   19.3040000  
O 16.3660000   20.9270000   22.2190000  
O 14.6720000   22.4900000   20.6260000  
H 11.5110000   18.6500000   18.8080000  
H 11.0440000   16.9680000   18.3630000  
H 14.3890000   16.2070000   21.0010000  
H 16.8690000   20.1150000   22.4650000  
H 15.5030000   22.6410000   21.1430000  
C 16.3190000   18.0180000   22.2490000  
C 17.5040000   17.8360000   21.5310000  
C 18.5220000   17.0360000   21.9920000  
C 18.2950000   16.1230000   23.0610000  
C 17.0760000   16.2950000   23.8330000  
C 16.0750000   17.1430000   23.3710000  
C 18.0420000   18.4660000   20.3410000  
C 19.3570000   18.0390000   20.2070000  
N 19.6710000   17.1330000   21.2290000  
O 19.6580000   19.2180000   18.1910000  
C 20.2540000   18.5260000   19.1940000  
O 21.4620000   18.2410000   19.2580000  
O 16.8500000   15.5280000   24.9250000  
O 14.9210000   17.1890000   24.1080000  
H 17.5430000   19.3150000   19.7600000  
H 18.7330000   19.3060000   18.5640000  
H 20.6170000   16.7610000   21.5420000  
H 17.6640000   15.0660000   25.2050000  
H 15.0600000   16.6850000   24.9270000  
C 19.3420000   15.1450000   23.4930000  
C 20.1300000   15.2760000   24.6440000  
C 21.1210000   14.3900000   25.0150000  
C 21.3200000   13.2300000   24.2780000  
C 20.5340000   12.9790000   23.1510000  
C 19.5640000   13.9390000   22.7220000  
C 20.1990000   16.3760000   25.5790000  
C 21.2040000   16.0930000   26.4620000  
N 21.8170000   14.8830000   26.0780000  
O 20.6540000   17.9450000   28.0280000  
C 21.4880000   16.9060000   27.7360000  
O 22.3570000   16.6160000   28.5470000  
O 20.8730000   11.8570000   22.4740000  
O 18.8380000   13.7340000   21.5420000  
H 19.5510000   17.2260000   25.5220000  
H 19.9140000   17.8690000   27.4020000  
H 22.5760000   14.4050000   26.5490000  
H 20.2780000   11.6670000   21.7300000  
H 18.5890000   14.6080000   21.1980000  
H 22.0720000   12.5570000   24.5870000  
