76
001 
C 17.4140000   22.6900000   27.7980000  
C 16.0780000   22.8580000   28.3870000  
C 14.9980000   22.2010000   27.8170000  
C 15.1060000   21.4140000   26.6840000  
C 16.2530000   21.3250000   25.9490000  
C 17.5480000   21.8260000   26.4590000  
C 13.6520000   21.9010000   28.3310000  
C 13.0350000   20.9510000   27.4400000  
N 13.9490000   20.7320000   26.4060000  
O 11.4140000   20.2600000   29.0300000  
C 11.8400000   20.1610000   27.7670000  
O 11.2850000   19.4910000   26.9380000  
O 18.6650000   21.7360000   25.9010000  
O 18.4240000   23.2290000   28.2130000  
H 15.9940000   23.4800000   29.2580000  
H 13.1910000   22.2570000   29.1980000  
H 11.9360000   21.0020000   29.4320000  
H 13.7430000   20.1550000   25.5730000  
C 16.1810000   20.4920000   24.7240000  
C 15.5600000   20.9120000   23.5090000  
C 15.5840000   20.1470000   22.3660000  
C 15.9870000   18.7460000   22.3140000  
C 16.5850000   18.3150000   23.5490000  
C 16.6930000   19.1870000   24.6640000  
C 14.7480000   22.0530000   23.3100000  
C 14.3760000   22.0320000   21.9400000  
N 14.8480000   20.7940000   21.3980000  
O 13.2450000   24.0300000   21.8650000  
C 13.4060000   22.8970000   21.2580000  
O 12.9240000   22.6770000   20.1820000  
O 17.0830000   17.0500000   23.6510000  
O 17.3000000   18.6020000   25.7550000  
H 14.3440000   22.8410000   23.9580000  
H 13.7690000   24.0870000   22.6900000  
H 14.4910000   20.2890000   20.5770000  
H 16.7800000   16.7360000   22.7820000  
H 17.1230000   19.2100000   26.4920000  
C 16.0810000   17.9860000   20.9470000  
C 17.3170000   17.4560000   20.5230000  
C 17.3720000   16.6390000   19.4670000  
C 16.3170000   16.4600000   18.5340000  
C 15.0900000   17.0920000   18.9000000  
C 14.9910000   17.8200000   20.0800000  
C 18.5440000   17.3810000   21.1950000  
C 19.2360000   16.3700000   20.5360000  
N 18.4700000   15.8890000   19.4610000  
O 21.0080000   16.3540000   22.0960000  
C 20.4890000   15.7320000   21.0190000  
O 21.0070000   14.7110000   20.6350000  
O 13.9470000   16.8570000   18.2040000  
O 13.7430000   18.2210000   20.5130000  
H 18.9010000   17.9710000   22.1110000  
H 20.4380000   17.1550000   22.1830000  
H 18.6930000   15.1420000   18.8160000  
H 14.1690000   16.3430000   17.4320000  
H 13.0280000   17.9470000   19.8510000  
C 16.4640000   15.7820000   17.2040000  
C 15.7160000   14.6190000   16.9050000  
C 15.7360000   14.0330000   15.6870000  
C 16.5730000   14.4980000   14.6570000  
C 17.3190000   15.6740000   14.8660000  
C 17.2970000   16.3040000   16.1480000  
C 14.6400000   13.9760000   17.6450000  
C 14.2390000   12.8720000   16.9200000  
N 14.8840000   12.9710000   15.6580000  
O 13.1430000   11.8490000   18.8040000  
C 13.3130000   11.8160000   17.4330000  
O 12.7270000   11.0560000   16.6930000  
O 18.0700000   16.1330000   13.7810000  
O 18.1000000   17.3920000   16.3420000  
H 14.4140000   14.1420000   18.6780000  
H 13.7700000   12.4780000   19.2610000  
H 14.8490000   12.3070000   14.8510000  
H 18.2730000   16.9770000   14.0630000  
H 18.0160000   17.5640000   17.3530000  
H 16.4780000   14.1110000   13.6900000  
