76
001 
C 11.0880000   18.4390000   15.9050000  
C 10.1810000   19.5490000   16.1280000  
C 10.3310000   20.3420000   17.2030000  
C 11.3470000   20.1030000   18.1430000  
C 12.2590000   19.0950000   18.0610000  
C 12.1890000   18.1770000   16.9380000  
C  9.5690000   21.5030000   17.6260000  
C 10.1710000   21.8990000   18.8590000  
N 11.2760000   21.0230000   19.0980000  
O  8.6070000   23.6760000   19.5210000  
C  9.6810000   22.8870000   19.8280000  
O 10.2430000   22.9840000   20.9110000  
O 12.9320000   17.2050000   16.7760000  
O 10.9490000   17.7300000   14.9330000  
H  9.3950000   19.6360000   15.4420000  
H  8.7110000   22.0250000   17.1110000  
H  8.4350000   23.5630000   18.5510000  
H 11.9480000   21.1550000   19.8730000  
C 13.2580000   19.2020000   19.1290000  
C 13.1040000   18.3220000   20.1940000  
C 14.0500000   18.2590000   21.1810000  
C 15.2780000   19.0220000   21.2500000  
C 15.3290000   20.0180000   20.2510000  
C 14.3250000   20.1400000   19.2420000  
C 12.1110000   17.2490000   20.4170000  
C 12.4700000   16.7130000   21.6770000  
N 13.6580000   17.3490000   22.1470000  
O 10.4000000   15.5970000   22.1300000  
C 11.6890000   15.7850000   22.5110000  
O 12.1160000   15.3330000   23.5860000  
O 16.3590000   20.9460000   20.2460000  
O 14.3850000   21.1730000   18.3100000  
H 11.1960000   17.0030000   19.8860000  
H 10.3560000   15.8720000   21.1910000  
H 14.2690000   16.9890000   22.8800000  
H 16.9230000   20.8840000   21.0250000  
H 15.2410000   21.5950000   18.3880000  
C 16.3420000   18.8260000   22.2390000  
C 17.0100000   17.5740000   22.2810000  
C 17.9880000   17.3780000   23.1720000  
C 18.4870000   18.3100000   24.0620000  
C 17.8900000   19.6070000   23.9940000  
C 16.8180000   19.8490000   23.1090000  
C 16.7830000   16.2360000   21.6300000  
C 17.5560000   15.3120000   22.3340000  
N 18.2190000   16.0260000   23.2800000  
O 17.1110000   13.1000000   21.2910000  
C 17.7960000   13.7910000   22.1840000  
O 18.6180000   13.2160000   22.9040000  
O 18.3990000   20.6720000   24.6960000  
O 16.2920000   21.0720000   23.0810000  
H 16.0930000   16.1020000   20.8670000  
H 16.6310000   13.8010000   20.7660000  
H 18.6880000   15.6080000   24.1140000  
H 19.2830000   20.4320000   25.0890000  
H 16.6240000   21.4260000   23.9350000  
C 19.5260000   17.9290000   25.0810000  
C 20.7620000   17.3090000   24.7170000  
C 21.6820000   16.8510000   25.6020000  
C 21.5460000   17.2180000   26.9420000  
C 20.3330000   17.7610000   27.3270000  
C 19.2980000   18.0620000   26.4230000  
C 21.3270000   17.1160000   23.3470000  
C 22.6000000   16.5620000   23.5820000  
N 22.7540000   16.2840000   24.9580000  
O 23.3640000   16.7800000   21.3040000  
C 23.6300000   16.2760000   22.5030000  
O 24.6450000   15.6690000   22.7270000  
O 20.2060000   18.1490000   28.6310000  
O 18.1580000   18.4770000   26.9310000  
H 21.0130000   17.4250000   22.3780000  
H 22.5620000   17.3070000   21.4020000  
H 23.5760000   15.8890000   25.3350000  
H 19.3910000   18.5930000   28.5860000  
H 17.6370000   18.8080000   26.1550000  
H 22.3370000   17.1400000   27.6660000  
