76
001 
C 16.2460000   21.2360000   28.7750000  
C 14.9360000   21.9390000   28.8540000  
C 13.9910000   21.7600000   27.8850000  
C 14.2070000   21.0880000   26.7110000  
C 15.4110000   20.5310000   26.3900000  
C 16.4300000   20.3730000   27.4460000  
C 12.7530000   22.4600000   27.6690000  
C 12.1960000   22.0680000   26.4310000  
N 13.1530000   21.2430000   25.8930000  
O 10.1780000   23.2160000   26.6290000  
C 10.9250000   22.4260000   25.8220000  
O 10.6700000   22.1920000   24.6500000  
O 17.4860000   19.6940000   27.3300000  
O 17.0940000   21.3740000   29.6670000  
H 14.7080000   22.4430000   29.7490000  
H 12.2960000   23.1230000   28.3830000  
H 10.5050000   23.3350000   27.4870000  
H 13.0490000   20.8590000   25.0080000  
C 15.5330000   19.9170000   25.0790000  
C 15.9990000   20.6090000   23.9840000  
C 16.1080000   19.9870000   22.7530000  
C 15.9260000   18.6290000   22.5340000  
C 15.4580000   17.9140000   23.6390000  
C 15.2460000   18.5330000   24.8700000  
C 16.5190000   21.9610000   23.7720000  
C 17.0900000   22.0420000   22.4560000  
N 16.6870000   20.8590000   21.7990000  
O 17.9180000   24.2690000   22.4560000  
C 17.8730000   23.0850000   21.8630000  
O 18.3740000   22.7880000   20.7990000  
O 15.1140000   16.5610000   23.4900000  
O 14.7540000   17.8070000   25.8680000  
H 16.8020000   22.7300000   24.4480000  
H 17.3100000   24.1570000   23.2080000  
H 16.9540000   20.5470000   20.8780000  
H 15.4220000   16.3000000   22.5540000  
H 14.9110000   16.8650000   25.5830000  
C 16.1250000   18.0250000   21.1640000  
C 16.9860000   16.9320000   21.0640000  
C 17.1310000   16.2680000   19.8630000  
C 16.3450000   16.5590000   18.6650000  
C 15.4120000   17.6090000   18.8100000  
C 15.2750000   18.3160000   20.0380000  
C 17.9420000   16.1920000   21.9410000  
C 18.5550000   15.2120000   21.1740000  
N 17.9240000   15.1940000   19.8930000  
O 20.3650000   14.8560000   22.6870000  
C 19.9180000   14.5570000   21.4490000  
O 20.5720000   13.8470000   20.6910000  
O 14.7040000   18.0280000   17.7270000  
O 14.2500000   19.2530000   20.1590000  
H 18.3830000   16.6810000   22.8210000  
H 19.7510000   15.4980000   23.0490000  
H 18.2330000   14.6690000   19.0730000  
H 15.0360000   17.5160000   16.9370000  
H 14.0250000   19.5460000   19.2280000  
C 16.5910000   15.9460000   17.2960000  
C 15.6860000   15.0680000   16.6640000  
C 15.9910000   14.4440000   15.5130000  
C 17.0800000   14.7510000   14.7820000  
C 17.8830000   15.8340000   15.2150000  
C 17.6970000   16.4050000   16.4820000  
C 14.3410000   14.4310000   17.1330000  
C 14.0180000   13.4710000   16.1370000  
N 15.0270000   13.4750000   15.1250000  
O 12.1760000   12.5800000   17.3890000  
C 12.8750000   12.5130000   16.2600000  
O 12.6700000   11.6480000   15.4010000  
O 18.9330000   16.2630000   14.3780000  
O 18.5240000   17.4520000   16.9320000  
H 13.6470000   14.7320000   17.9550000  
H 12.5820000   13.2210000   17.9330000  
H 15.0120000   12.8570000   14.3270000  
H 19.2100000   17.1640000   14.7550000  
H 18.2050000   17.6770000   17.7580000  
H 17.2280000   14.3500000   13.8270000  
