76
001 
C 14.1930000   13.4500000   27.4890000  
C 15.0850000   14.0860000   28.5160000  
C 15.5870000   15.3510000   28.3010000  
C 15.3610000   16.0800000   27.1630000  
C 14.6920000   15.5940000   26.0380000  
C 14.1950000   14.2000000   26.1360000  
C 16.3490000   16.1950000   29.1450000  
C 16.7040000   17.3270000   28.4340000  
N 16.0140000   17.2040000   27.2310000  
O 17.7980000   18.4750000   30.1920000  
C 17.4860000   18.4400000   28.9040000  
O 17.8370000   19.3100000   28.1300000  
O 13.7770000   13.6370000   25.1270000  
O 13.5390000   12.4150000   27.6810000  
H 15.1390000   13.5970000   29.4750000  
H 16.5710000   15.9590000   30.1500000  
H 17.2960000   17.7050000   30.6140000  
H 16.1260000   17.7740000   26.4740000  
C 14.8300000   16.4250000   24.8470000  
C 16.0600000   16.3240000   24.1510000  
C 16.2720000   17.1970000   23.1450000  
C 15.2750000   17.9610000   22.5170000  
C 13.9860000   17.9520000   23.1670000  
C 13.7940000   17.2460000   24.3660000  
C 17.2930000   15.5600000   24.3980000  
C 18.1540000   15.9220000   23.3290000  
N 17.4820000   16.9230000   22.5150000  
O 19.7610000   14.3570000   24.0810000  
C 19.4920000   15.3440000   23.1630000  
O 20.2700000   15.6850000   22.2670000  
O 12.9620000   18.8090000   22.6930000  
O 12.6470000   17.4080000   25.1190000  
H 17.4720000   14.9300000   25.2650000  
H 19.0410000   14.4360000   24.6910000  
H 17.8730000   17.4850000   21.7480000  
H 13.3510000   19.3280000   21.9740000  
H 12.4140000   16.5810000   25.5320000  
C 15.6630000   18.7030000   21.2990000  
C 15.1110000   18.3960000   20.0520000  
C 15.4420000   19.0690000   18.9160000  
C 16.5970000   19.9260000   18.8170000  
C 17.2120000   20.2160000   20.0310000  
C 16.7700000   19.6260000   21.2480000  
C 14.0530000   17.4780000   19.6820000  
C 13.8600000   17.7090000   18.3260000  
N 14.6840000   18.7060000   17.9000000  
O 12.3840000   15.7850000   17.9020000  
C 12.9600000   16.9480000   17.4330000  
O 12.6350000   17.4130000   16.3450000  
O 18.2860000   21.0410000   20.1310000  
O 17.5220000   19.7360000   22.3760000  
H 13.5450000   16.7270000   20.2510000  
H 12.9360000   15.6120000   18.6500000  
H 14.7260000   19.0970000   16.9650000  
H 18.1170000   21.8180000   19.5580000  
H 18.4500000   20.1760000   22.1260000  
C 16.9360000   20.6470000   17.5500000  
C 16.0530000   21.5530000   16.8650000  
C 16.4260000   22.0740000   15.6910000  
C 17.6510000   21.8420000   15.0450000  
C 18.5740000   21.0440000   15.6880000  
C 18.1530000   20.4320000   16.8360000  
C 14.6950000   21.8840000   17.1090000  
C 14.2960000   22.7140000   16.0820000  
N 15.3720000   22.8690000   15.2300000  
O 12.0730000   22.5010000   16.7190000  
C 12.8990000   23.1050000   15.8610000  
O 12.5520000   23.8840000   14.9520000  
O 19.7690000   20.7190000   15.1000000  
O 19.1530000   19.7490000   17.5240000  
H 14.1180000   21.5670000   17.9080000  
H 12.6140000   21.9480000   17.2540000  
H 15.3190000   23.3760000   14.3760000  
H 20.2490000   20.2490000   15.8090000  
H 18.8730000   19.6830000   18.4130000  
H 17.8960000   22.4250000   14.1450000  
