76
001 
C 15.8420000   17.7850000   29.4150000  
C 15.4580000   19.1740000   29.8210000  
C 15.1660000   20.0350000   28.8290000  
C 14.9610000   19.6350000   27.4870000  
C 15.2950000   18.3850000   27.0320000  
C 15.8290000   17.3830000   27.9160000  
C 15.2260000   21.4480000   28.7360000  
C 14.9650000   21.8700000   27.4230000  
N 14.7580000   20.7480000   26.6740000  
O 15.2500000   24.1350000   27.8750000  
C 15.1550000   23.2080000   26.8800000  
O 15.2460000   23.4890000   25.7000000  
O 16.0830000   16.2760000   27.5460000  
O 16.1250000   16.9880000   30.3140000  
H 15.4990000   19.4240000   30.8850000  
H 15.3750000   22.0710000   29.6090000  
H 15.1340000   23.6620000   28.6810000  
H 14.6640000   20.9020000   25.7020000  
C 15.1800000   18.2680000   25.5420000  
C 16.1540000   18.8470000   24.7270000  
C 16.0360000   18.7250000   23.4030000  
C 15.0310000   17.9930000   22.7180000  
C 14.0350000   17.4040000   23.5740000  
C 14.1100000   17.5260000   24.9780000  
C 17.2740000   19.6330000   25.0580000  
C 17.7260000   20.0160000   23.8450000  
N 17.0180000   19.4390000   22.8370000  
O 19.4740000   21.4680000   24.7630000  
C 18.8380000   20.9860000   23.6000000  
O 19.1640000   21.2310000   22.4390000  
O 13.0080000   16.7120000   23.0120000  
O 13.2950000   16.9230000   25.9110000  
H 17.6930000   20.0460000   26.0140000  
H 18.9280000   21.1600000   25.5180000  
H 17.2260000   19.6370000   21.8740000  
H 12.9380000   16.9190000   22.0690000  
H 13.6700000   16.8120000   26.7730000  
C 14.9170000   17.8150000   21.1710000  
C 15.9680000   17.2000000   20.4690000  
C 15.9620000   17.0940000   19.0590000  
C 14.9080000   17.6130000   18.2540000  
C 13.9110000   18.3500000   18.9550000  
C 13.8550000   18.3360000   20.3570000  
C 17.3670000   16.7740000   20.7610000  
C 18.0700000   16.5350000   19.5990000  
N 17.1610000   16.7730000   18.5450000  
O 20.2130000   16.1380000   20.5360000  
C 19.4380000   16.0460000   19.4430000  
O 19.8940000   15.6510000   18.3590000  
O 12.9480000   19.0070000   18.2640000  
O 12.7620000   18.9510000   20.9970000  
H 17.7460000   16.7470000   21.7610000  
H 19.8500000   16.8850000   21.0890000  
H 17.3660000   16.8140000   17.5360000  
H 13.1710000   18.9500000   17.2740000  
H 12.0570000   19.0610000   20.3930000  
C 15.1150000   17.8030000   16.7960000  
C 15.2590000   16.7480000   15.9600000  
C 15.6050000   16.8740000   14.5850000  
C 15.8120000   18.0890000   13.9410000  
C 15.5130000   19.2130000   14.7230000  
C 15.2690000   19.0350000   16.1340000  
C 15.1580000   15.3220000   16.2240000  
C 15.3830000   14.6600000   14.9980000  
N 15.7740000   15.6090000   14.0120000  
O 15.0380000   12.4830000   15.8390000  
C 15.2200000   13.2340000   14.7320000  
O 15.3740000   12.7210000   13.6770000  
O 15.4860000   20.4330000   14.1420000  
O 15.4380000   20.1930000   16.8740000  
H 14.8480000   14.8690000   17.0800000  
H 14.9970000   13.1460000   16.5460000  
H 16.0100000   15.4220000   13.0110000  
H 15.4890000   21.1790000   14.8640000  
H 15.7470000   19.9230000   17.7850000  
H 15.9880000   18.1670000   12.8520000  
