76
001 
C 16.8200000   23.1740000   27.2700000  
C 15.5430000   23.9230000   27.2980000  
C 14.4780000   23.4000000   26.6300000  
C 14.4890000   22.2230000   25.9570000  
C 15.6480000   21.4960000   25.6820000  
C 16.9120000   21.9330000   26.3300000  
C 13.1490000   23.9120000   26.5370000  
C 12.4290000   23.0060000   25.6750000  
N 13.2760000   21.9780000   25.4010000  
O 10.4650000   24.2090000   25.6670000  
C 11.0720000   23.2170000   25.0970000  
O 10.6230000   22.5030000   24.2140000  
O 17.9850000   21.3920000   26.1580000  
O 17.7380000   23.5360000   27.9730000  
H 15.5780000   24.8130000   27.8580000  
H 12.7580000   24.8370000   26.9520000  
H 11.0590000   24.4830000   26.3760000  
H 12.8880000   21.1020000   24.9350000  
C 15.6360000   20.4190000   24.7220000  
C 15.3210000   20.6570000   23.3200000  
C 15.2380000   19.6690000   22.4730000  
C 15.6370000   18.3430000   22.7890000  
C 15.9070000   18.0560000   24.0940000  
C 15.8240000   19.0860000   25.1300000  
C 14.9150000   21.8040000   22.5420000  
C 14.7760000   21.3880000   21.2040000  
N 15.0040000   20.0200000   21.2070000  
O 14.2620000   23.5690000   20.3090000  
C 14.5720000   22.2680000   20.0740000  
O 14.6920000   21.8390000   18.9320000  
O 16.1340000   16.7710000   24.4380000  
O 15.9740000   18.7210000   26.4290000  
H 14.8830000   22.8510000   22.8290000  
H 14.4780000   23.6980000   21.2860000  
H 15.1280000   19.4360000   20.3730000  
H 16.1280000   16.2570000   23.6440000  
H 15.6240000   19.4870000   26.8650000  
C 15.6860000   17.3140000   21.6890000  
C 16.6370000   17.4680000   20.6180000  
C 16.6570000   16.5930000   19.5370000  
C 15.8360000   15.4430000   19.4120000  
C 14.9560000   15.2160000   20.4310000  
C 14.8660000   16.1130000   21.5680000  
C 17.6090000   18.4910000   20.3690000  
C 18.2070000   18.2020000   19.1640000  
N 17.5450000   17.0420000   18.5860000  
O 19.8780000   19.8850000   19.4290000  
C 19.3390000   18.9690000   18.6130000  
O 19.7610000   18.8140000   17.5000000  
O 14.3300000   14.0310000   20.5890000  
O 13.8850000   15.8680000   22.5380000  
H 17.9330000   19.2660000   21.0110000  
H 19.3340000   19.8700000   20.2630000  
H 17.5370000   16.6930000   17.6040000  
H 14.7370000   13.3720000   19.9330000  
H 13.5130000   15.0420000   22.3220000  
C 15.9150000   14.5770000   18.2040000  
C 16.7200000   13.4780000   18.3220000  
C 16.8100000   12.5030000   17.3630000  
C 16.1540000   12.6190000   16.1300000  
C 15.2860000   13.7830000   15.9520000  
C 15.1660000   14.7490000   17.0090000  
C 17.6540000   13.1050000   19.3550000  
C 18.1790000   11.8770000   19.0260000  
N 17.6600000   11.4900000   17.8180000  
O 19.1500000   11.3450000   21.1650000  
C 18.8840000   10.9510000   19.9170000  
O 19.3490000    9.9230000   19.5270000  
O 14.6620000   13.8350000   14.7330000  
O 14.2460000   15.7610000   16.9630000  
H 17.9030000   13.6820000   20.2150000  
H 18.7720000   12.1990000   21.2960000  
H 18.0760000   10.7650000   17.2050000  
H 14.4180000   14.7860000   14.7480000  
H 14.2610000   16.3500000   17.6910000  
H 16.1940000   11.8640000   15.3250000  
