76
010 
C 19.0960000   11.7890000   23.9530000  
C 17.9840000   10.8020000   23.7900000  
C 16.7410000   11.2260000   23.4450000  
C 16.4590000   12.5710000   23.2530000  
C 17.3740000   13.5970000   23.3890000  
C 18.7590000   13.3410000   23.7580000  
C 15.6330000   10.4800000   23.0950000  
C 14.6400000   11.3940000   22.7650000  
N 15.1970000   12.6330000   22.7760000  
O 12.8940000    9.6930000   22.5730000  
C 13.2210000   11.0150000   22.4800000  
O 12.4270000   11.8520000   22.0500000  
O 19.6800000   14.1510000   23.8210000  
O 20.2720000   11.4660000   24.1890000  
H 18.2990000    9.7580000   23.9690000  
H 15.5490000    9.4380000   23.2200000  
H 13.7700000    9.2410000   22.6610000  
H 14.7560000   13.5440000   22.4910000  
C 16.8980000   14.9040000   22.9950000  
C 16.0760000   15.6920000   23.7870000  
C 15.6050000   16.8760000   23.3330000  
C 16.0390000   17.5460000   22.2020000  
C 16.9660000   16.8200000   21.3560000  
C 17.3430000   15.4800000   21.7790000  
C 15.3770000   15.3910000   25.0190000  
C 14.4900000   16.4340000   25.2210000  
N 14.7810000   17.4160000   24.3020000  
O 13.5360000   15.6750000   27.3050000  
C 13.5800000   16.6400000   26.3770000  
O 12.9280000   17.6570000   26.4540000  
O 17.5040000   17.3040000   20.2020000  
O 18.1130000   14.6660000   20.9810000  
H 15.4150000   14.3990000   25.5190000  
H 14.2530000   15.0400000   27.2520000  
H 14.4320000   18.3710000   24.2670000  
H 17.0500000   18.2020000   19.9590000  
H 18.3610000   15.3030000   20.2500000  
C 15.5860000   18.9140000   21.7820000  
C 16.4410000   20.0380000   21.5520000  
C 15.8730000   21.1700000   21.1830000  
C 14.5540000   21.4470000   20.9620000  
C 13.6770000   20.3930000   21.1220000  
C 14.1970000   19.1030000   21.6130000  
C 17.8940000   20.1340000   21.7160000  
C 18.1430000   21.4790000   21.3350000  
N 16.8790000   22.0870000   21.0300000  
O 20.4730000   21.1040000   21.4350000  
C 19.5500000   22.0180000   21.2570000  
O 19.7670000   23.1930000   21.0760000  
O 12.3130000   20.4630000   20.9560000  
O 13.3930000   18.0240000   21.6770000  
H 18.5480000   19.3140000   21.9440000  
H 19.9510000   20.3050000   21.6870000  
H 16.8260000   23.0250000   20.6730000  
H 12.0180000   21.2900000   20.5160000  
H 12.4200000   18.1670000   21.5440000  
C 14.1990000   22.8040000   20.5080000  
C 13.8610000   22.9470000   19.1210000  
C 13.4850000   24.1810000   18.6390000  
C 13.4710000   25.3680000   19.4470000  
C 13.8400000   25.1670000   20.8180000  
C 14.2320000   23.9540000   21.3130000  
C 13.7130000   22.0370000   17.9910000  
C 13.2340000   22.7720000   16.9270000  
N 13.0760000   24.0910000   17.2950000  
O 13.3160000   20.9000000   15.4750000  
C 13.2450000   22.2590000   15.5730000  
O 13.0570000   23.0000000   14.5790000  
O 13.8600000   26.2360000   21.6840000  
O 14.6780000   23.7340000   22.5620000  
H 13.7020000   20.9070000   17.9940000  
H 13.4980000   20.5830000   16.3880000  
H 12.7980000   24.8370000   16.6850000  
H 13.8430000   25.9110000   22.6140000  
H 14.8700000   22.8160000   22.6880000  
H 13.2590000   26.3170000   19.0490000  
