76
010 
C  8.1250000   18.1680000   22.4190000  
C  7.7970000   17.9860000   23.8450000  
C  8.8270000   17.9170000   24.7430000  
C 10.1920000   17.9330000   24.3900000  
C 10.6270000   18.0520000   23.0280000  
C  9.6470000   18.1830000   21.9480000  
C  8.7610000   17.7650000   26.2090000  
C 10.1300000   17.6770000   26.6860000  
N 10.9390000   17.8460000   25.5170000  
O  9.5080000   17.2610000   28.9430000  
C 10.5650000   17.4530000   28.0900000  
O 11.6930000   17.4690000   28.4970000  
O  9.9990000   18.2020000   20.7650000  
O  7.2330000   18.3130000   21.6180000  
H  6.7810000   18.0740000   24.0450000  
H  7.8610000   17.7000000   26.8090000  
H  8.8310000   17.8630000   28.5520000  
H 12.0110000   17.8440000   25.4460000  
C 12.0620000   18.2070000   22.7490000  
C 12.8260000   17.1010000   22.8500000  
C 14.1840000   17.2310000   22.6230000  
C 14.8170000   18.4060000   22.1930000  
C 14.0500000   19.5730000   22.1440000  
C 12.6630000   19.4970000   22.5290000  
C 12.4650000   15.7140000   22.9770000  
C 13.6910000   15.0050000   22.8970000  
N 14.6970000   15.9280000   22.6000000  
O 12.6760000   12.9550000   23.6220000  
C 13.8000000   13.5120000   23.0550000  
O 14.7460000   12.8850000   22.7960000  
O 14.6330000   20.7590000   21.7580000  
O 11.9160000   20.6240000   22.8570000  
H 11.4670000   15.2650000   23.0440000  
H 12.1970000   13.7240000   23.8320000  
H 15.6410000   15.6890000   22.4150000  
H 15.3990000   20.5980000   21.1690000  
H 12.5090000   21.4200000   22.8640000  
C 16.1510000   18.2940000   21.6100000  
C 16.4060000   18.5560000   20.2200000  
C 17.6470000   18.5350000   19.7140000  
C 18.8150000   18.0960000   20.3620000  
C 18.5810000   17.6600000   21.7000000  
C 17.2910000   17.7390000   22.2870000  
C 15.4740000   19.0140000   19.2180000  
C 16.2580000   19.3160000   18.1190000  
N 17.5830000   18.9670000   18.4440000  
O 14.6060000   20.4150000   16.7630000  
C 15.9130000   19.9720000   16.8480000  
O 16.6630000   19.9660000   15.9050000  
O 19.6180000   17.0250000   22.3440000  
O 17.0630000   17.2310000   23.5070000  
H 14.3780000   19.1240000   19.2640000  
H 14.2470000   20.1060000   17.6650000  
H 18.3880000   19.1730000   17.9090000  
H 20.3330000   17.3570000   21.8340000  
H 17.8950000   17.2900000   23.9870000  
C 20.1760000   17.9680000   19.6770000  
C 21.2130000   18.8370000   19.9470000  
C 22.3930000   18.7820000   19.2440000  
C 22.5710000   17.9230000   18.1250000  
C 21.5530000   16.9710000   17.8810000  
C 20.3040000   17.0800000   18.5480000  
C 21.3050000   19.9700000   20.8560000  
C 22.6120000   20.4730000   20.7580000  
N 23.2800000   19.7540000   19.7360000  
O 22.3170000   22.3750000   22.2420000  
C 23.1470000   21.6230000   21.4910000  
O 24.2600000   21.9650000   21.3070000  
O 21.6880000   15.9740000   16.9600000  
O 19.2880000   16.2210000   18.2090000  
H 20.6630000   20.3040000   21.6730000  
H 21.5620000   21.8150000   22.4300000  
H 24.2200000   20.0100000   19.4450000  
H 20.9780000   15.3390000   16.9410000  
H 18.8470000   16.0660000   19.0760000  
H 23.5590000   17.8920000   17.6760000  
