76
010 
C 17.6920000   16.4630000   28.6680000  
C 18.2410000   15.1370000   28.4450000  
C 18.4430000   14.5690000   27.2530000  
C 18.1900000   15.2680000   26.1020000  
C 17.6130000   16.4970000   26.0840000  
C 17.2380000   17.1850000   27.3520000  
C 19.1710000   13.4200000   26.8780000  
C 19.1100000   13.3510000   25.5020000  
N 18.5110000   14.5310000   25.0430000  
O 20.3140000   11.3410000   25.1390000  
C 19.8520000   12.4580000   24.5770000  
O 20.0110000   12.7180000   23.3970000  
O 16.7350000   18.2750000   27.5060000  
O 17.4470000   16.8920000   29.8180000  
H 18.6120000   14.6940000   29.3530000  
H 19.6830000   12.6860000   27.4820000  
H 20.2190000   11.5140000   26.0370000  
H 18.4520000   14.8510000   24.1120000  
C 17.1470000   16.9800000   24.8150000  
C 16.0980000   16.3060000   24.1010000  
C 15.7680000   16.7620000   22.8450000  
C 16.3530000   17.8820000   22.1950000  
C 17.3470000   18.6040000   22.9520000  
C 17.6750000   18.1620000   24.2460000  
C 15.2280000   15.1160000   24.3430000  
C 14.2650000   15.0740000   23.2580000  
N 14.7100000   16.0410000   22.3420000  
O 12.9570000   13.4120000   24.0500000  
C 13.1490000   14.1600000   22.9860000  
O 12.4560000   14.1610000   22.0100000  
O 17.9060000   19.7150000   22.3380000  
O 18.4890000   18.9560000   25.0020000  
H 15.2060000   14.3740000   25.1210000  
H 13.5670000   13.6680000   24.7730000  
H 14.3280000   16.2060000   21.4090000  
H 17.5180000   20.0040000   21.4610000  
H 18.7450000   19.7400000   24.3480000  
C 15.7240000   18.4180000   20.9900000  
C 14.4780000   19.0830000   21.0990000  
C 13.8890000   19.5720000   19.9890000  
C 14.4770000   19.5360000   18.7270000  
C 15.6950000   18.8400000   18.5660000  
C 16.2940000   18.3060000   19.6520000  
C 13.5350000   19.2230000   22.2170000  
C 12.3660000   19.8280000   21.6920000  
N 12.6140000   20.0740000   20.3410000  
O 11.0160000   19.7550000   23.6260000  
C 11.0270000   19.9870000   22.3310000  
O 10.0640000   20.4520000   21.6780000  
O 16.2220000   18.6880000   17.3240000  
O 17.4990000   17.6200000   19.6190000  
H 13.7660000   18.9290000   23.1910000  
H 11.8670000   19.3570000   23.7900000  
H 11.9870000   20.6490000   19.6910000  
H 15.7630000   19.2020000   16.6230000  
H 17.7830000   17.8160000   18.7620000  
C 13.7690000   20.1350000   17.5780000  
C 14.2330000   21.3850000   17.1270000  
C 13.5710000   21.9780000   16.0920000  
C 12.3580000   21.4840000   15.4750000  
C 12.0010000   20.1870000   15.8680000  
C 12.6720000   19.5170000   16.9250000  
C 15.2210000   22.3330000   17.5640000  
C 15.2020000   23.4140000   16.6700000  
N 14.1500000   23.1890000   15.7780000  
O 17.2630000   24.2820000   17.3200000  
C 16.2970000   24.3940000   16.4770000  
O 16.3560000   25.2070000   15.5870000  
O 10.9680000   19.6070000   15.1500000  
O 12.1770000   18.2950000   17.3590000  
H 15.7610000   22.1800000   18.4680000  
H 16.8820000   23.6980000   17.9360000  
H 13.9250000   23.8450000   15.0430000  
H 10.8300000   18.7770000   15.5690000  
H 12.5090000   18.0660000   18.2240000  
H 11.8910000   21.9680000   14.6050000  
