76
010 
C  9.8040000   14.3410000   24.9700000  
C  9.2850000   13.4830000   23.8410000  
C  9.8860000   13.5170000   22.5900000  
C 11.0120000   14.3240000   22.3170000  
C 11.6220000   15.2210000   23.1410000  
C 11.0270000   15.3600000   24.5330000  
C  9.6400000   12.6780000   21.4870000  
C 10.4820000   13.0910000   20.4400000  
N 11.4030000   13.9930000   21.0310000  
O  9.5160000   11.6650000   18.7240000  
C 10.3740000   12.6630000   18.9950000  
O 10.8740000   13.2950000   18.0300000  
O 11.2670000   16.2730000   25.3260000  
O  9.3390000   14.3320000   26.1320000  
H  8.4320000   12.9400000   24.1850000  
H  8.8640000   11.8690000   21.5270000  
H  9.0440000   11.2170000   19.4640000  
H 12.1030000   14.4760000   20.5120000  
C 12.7400000   16.0370000   22.5820000  
C 12.5600000   17.3750000   22.2740000  
C 13.5700000   18.2170000   21.9750000  
C 14.8680000   17.7020000   21.7470000  
C 15.0640000   16.2760000   21.8730000  
C 14.0140000   15.4220000   22.2800000  
C 11.4120000   18.2220000   22.4090000  
C 11.7430000   19.5390000   22.0290000  
N 13.1170000   19.5620000   21.7170000  
O  9.6540000   20.5200000   22.6700000  
C 10.8620000   20.7280000   22.1460000  
O 11.1660000   21.8570000   21.7850000  
O 16.2710000   15.6860000   21.6400000  
O 14.1760000   14.0730000   22.4650000  
H 10.4400000   17.8790000   22.7360000  
H  9.6470000   19.6140000   22.9090000  
H 13.5860000   20.4280000   21.3800000  
H 16.8770000   16.2980000   21.1920000  
H 15.0210000   13.5990000   22.3600000  
C 15.9450000   18.5190000   21.3400000  
C 16.5750000   19.3350000   22.3390000  
C 17.7160000   19.9630000   21.8970000  
C 18.1960000   20.0140000   20.5410000  
C 17.6120000   19.0800000   19.6410000  
C 16.4650000   18.3770000   20.0230000  
C 16.4270000   19.6200000   23.7230000  
C 17.4350000   20.5350000   24.0720000  
N 18.2630000   20.7270000   22.9270000  
O 16.8160000   21.0880000   26.2690000  
C 17.7250000   21.2690000   25.3020000  
O 18.6710000   21.9580000   25.5670000  
O 18.1370000   18.9920000   18.3550000  
O 15.8360000   17.5710000   19.1530000  
H 15.6090000   19.1960000   24.3740000  
H 16.1580000   20.5280000   25.8230000  
H 18.9530000   21.4790000   22.7820000  
H 18.6740000   19.8040000   18.2120000  
H 16.0620000   17.7050000   18.1800000  
C 19.3590000   20.8950000   20.2370000  
C 20.6470000   20.5100000   20.6170000  
C 21.6690000   21.3720000   20.3610000  
C 21.5630000   22.6360000   19.6770000  
C 20.3030000   22.9410000   19.1520000  
C 19.2010000   22.0980000   19.5110000  
C 21.2180000   19.3630000   21.3300000  
C 22.5960000   19.4890000   21.2070000  
N 22.8440000   20.8080000   20.7800000  
O 23.1930000   17.3200000   21.7490000  
C 23.6640000   18.5440000   21.5870000  
O 24.8560000   18.8240000   21.5990000  
O 20.1430000   24.0620000   18.4800000  
O 17.9760000   22.4140000   18.9970000  
H 20.7770000   18.4860000   21.7090000  
H 22.3120000   17.3850000   21.3150000  
H 23.7230000   21.1040000   20.4350000  
H 19.2140000   24.0420000   18.2400000  
H 17.4070000   21.5960000   19.0810000  
H 22.4490000   23.2250000   19.4620000  
