76
010 
C  7.6940000   17.9180000   22.5200000  
C  7.6990000   17.7160000   23.9290000  
C  8.9140000   17.6670000   24.6190000  
C 10.1870000   17.7360000   23.9850000  
C 10.3540000   17.7310000   22.6380000  
C  9.0940000   17.8480000   21.8130000  
C  9.1980000   17.6490000   26.0010000  
C 10.5580000   17.7570000   26.2580000  
N 11.1420000   17.8290000   24.9420000  
O 10.3250000   17.6490000   28.6240000  
C 11.1680000   17.8210000   27.6260000  
O 12.3430000   17.9790000   27.7610000  
O  9.1290000   17.9740000   20.6190000  
O  6.5860000   18.1540000   21.9590000  
H  6.6970000   17.7890000   24.3610000  
H  8.4130000   17.6310000   26.6980000  
H  9.4860000   17.4290000   28.1480000  
H 12.1160000   17.7750000   24.8360000  
C 11.7290000   17.7770000   22.1270000  
C 12.7170000   16.7370000   22.3900000  
C 14.0640000   16.9910000   22.2470000  
C 14.5150000   18.1270000   21.6000000  
C 13.6160000   19.1660000   21.2590000  
C 12.2350000   19.0040000   21.5720000  
C 12.5310000   15.4290000   22.9200000  
C 13.8150000   14.8840000   22.9620000  
N 14.7450000   15.8140000   22.4940000  
O 13.0630000   12.6970000   23.9180000  
C 14.0650000   13.4700000   23.4300000  
O 15.1510000   13.0370000   23.1710000  
O 14.1080000   20.3830000   20.8420000  
O 11.3210000   19.9960000   21.4410000  
H 11.6150000   14.8480000   23.1340000  
H 12.3090000   13.2330000   24.0210000  
H 15.8170000   15.6890000   22.4760000  
H 15.1170000   20.4420000   20.8300000  
H 11.8020000   20.7190000   20.9080000  
C 15.9560000   18.3030000   21.2850000  
C 16.3830000   18.4210000   19.9010000  
C 17.6920000   18.5540000   19.5820000  
C 18.7430000   18.5850000   20.5470000  
C 18.3210000   18.5340000   21.9090000  
C 16.9780000   18.2990000   22.2890000  
C 15.6840000   18.2510000   18.6560000  
C 16.5810000   18.3150000   17.5980000  
N 17.8470000   18.5790000   18.1740000  
O 15.0250000   18.0750000   15.7380000  
C 16.3520000   18.0670000   16.1290000  
O 17.2700000   17.9340000   15.3840000  
O 19.3000000   18.6190000   22.8550000  
O 16.6290000   18.1000000   23.6670000  
H 14.6130000   18.2390000   18.5630000  
H 14.4810000   18.3500000   16.4600000  
H 18.7040000   18.8050000   17.7220000  
H 20.0900000   18.8030000   22.4120000  
H 17.4060000   18.3490000   24.1980000  
C 20.2180000   18.5370000   20.1410000  
C 21.2110000   19.4410000   20.5640000  
C 22.5510000   19.4140000   20.1850000  
C 23.0860000   18.3270000   19.5350000  
C 22.2480000   17.2640000   19.2920000  
C 20.8180000   17.4250000   19.5380000  
C 20.9420000   20.6610000   21.3440000  
C 22.1430000   21.3710000   21.2760000  
N 23.0930000   20.6200000   20.5490000  
O 21.4410000   23.2510000   22.6040000  
C 22.4280000   22.6670000   21.9160000  
O 23.5250000   23.1950000   21.8330000  
O 22.7400000   16.1610000   18.7280000  
O 20.0160000   16.3500000   19.3000000  
H 19.9930000   21.0370000   21.7440000  
H 20.6350000   22.7480000   22.3920000  
H 24.0380000   20.9160000   20.4020000  
H 22.0600000   15.4540000   18.9550000  
H 19.0800000   16.5690000   19.5520000  
H 24.1960000   18.3070000   19.3460000  
