76
010 
C 14.9680000   15.7100000   28.7240000  
C 15.4650000   16.7390000   29.6630000  
C 15.8330000   17.9740000   29.1780000  
C 15.7640000   18.3550000   27.8480000  
C 15.3020000   17.4990000   26.8610000  
C 14.7730000   16.0990000   27.1940000  
C 16.5120000   19.0610000   29.8200000  
C 16.8560000   20.0910000   28.8750000  
N 16.4160000   19.5650000   27.6950000  
O 17.9810000   21.3500000   30.4810000  
C 17.7200000   21.2380000   29.1810000  
O 18.2580000   22.0420000   28.4780000  
O 14.2080000   15.3490000   26.4080000  
O 14.6170000   14.6020000   29.1010000  
H 15.6290000   16.4730000   30.6810000  
H 16.8820000   19.0150000   30.8150000  
H 17.5590000   20.4740000   30.7410000  
H 16.4930000   20.0760000   26.8380000  
C 15.4680000   17.8740000   25.4100000  
C 16.1620000   16.9910000   24.5580000  
C 16.3250000   17.3200000   23.2530000  
C 15.6770000   18.3610000   22.5980000  
C 14.9100000   19.1910000   23.4080000  
C 14.7960000   18.9880000   24.8470000  
C 16.9920000   15.7940000   24.7430000  
C 17.5060000   15.3980000   23.5210000  
N 16.9900000   16.3240000   22.5870000  
O 18.6310000   13.4890000   24.2870000  
C 18.3040000   14.1730000   23.1970000  
O 18.7210000   13.8980000   22.1000000  
O 14.1840000   20.1470000   22.7230000  
O 13.9550000   19.8170000   25.4770000  
H 17.1280000   15.2230000   25.7280000  
H 18.0440000   13.9870000   24.8670000  
H 17.1380000   16.3190000   21.5760000  
H 14.5470000   20.1270000   21.8040000  
H 13.2900000   20.1410000   24.8170000  
C 15.7630000   18.6580000   21.1520000  
C 15.2930000   17.6860000   20.2280000  
C 15.2650000   17.9610000   18.8990000  
C 15.7480000   19.1400000   18.3040000  
C 16.2070000   20.1620000   19.2240000  
C 16.2470000   19.8500000   20.6040000  
C 14.6920000   16.3890000   20.3030000  
C 14.3010000   16.0100000   18.9900000  
N 14.7490000   16.9890000   18.1130000  
O 13.1920000   13.9830000   19.5250000  
C 13.7740000   14.6950000   18.5850000  
O 13.8480000   14.3490000   17.4040000  
O 16.7090000   21.3060000   18.6920000  
O 16.7910000   20.7630000   21.4120000  
H 14.6690000   15.7580000   21.2080000  
H 13.3430000   14.5410000   20.2940000  
H 14.5800000   17.0130000   17.1840000  
H 16.7140000   21.1430000   17.6910000  
H 17.0340000   21.5520000   20.8360000  
C 15.7490000   19.2890000   16.8640000  
C 14.5880000   19.4160000   16.0820000  
C 14.6680000   19.6800000   14.7610000  
C 15.9220000   19.8790000   14.1090000  
C 17.0790000   19.8820000   14.8880000  
C 17.0250000   19.4840000   16.2920000  
C 13.1720000   19.2170000   16.3420000  
C 12.4740000   19.4800000   15.1310000  
N 13.4240000   19.8420000   14.1830000  
O 10.4970000   18.5680000   15.8350000  
C 11.0420000   19.2510000   14.8450000  
O 10.4740000   19.5880000   13.8310000  
O 18.2910000   20.0630000   14.3020000  
O 18.1700000   19.1970000   16.9420000  
H 12.6820000   18.8640000   17.2760000  
H 11.0870000   18.5500000   16.5960000  
H 13.1940000   19.8680000   13.1990000  
H 19.0270000   20.3760000   14.8990000  
H 18.1060000   18.4450000   17.5840000  
H 15.9790000   20.0710000   13.0460000  
