76
010 
C 19.2040000   13.1830000   26.0230000  
C 18.7230000   11.8650000   25.6070000  
C 17.8120000   11.7500000   24.5730000  
C 17.4070000   12.9130000   23.8880000  
C 17.7470000   14.2060000   24.2360000  
C 18.6350000   14.4770000   25.3380000  
C 17.2260000   10.6100000   23.8640000  
C 16.5200000   11.1570000   22.7410000  
N 16.5950000   12.5260000   22.8420000  
O 15.8500000    9.1470000   21.7520000  
C 15.9250000   10.4440000   21.6160000  
O 15.3890000   11.0060000   20.6880000  
O 19.0820000   15.5440000   25.7200000  
O 19.9900000   13.2120000   26.9900000  
H 19.0950000   11.1190000   26.2340000  
H 17.4120000    9.5640000   24.0580000  
H 16.4420000    8.7770000   22.4060000  
H 16.1160000   13.2580000   22.2790000  
C 17.0830000   15.2170000   23.4430000  
C 15.8580000   15.7760000   23.9160000  
C 15.2160000   16.7940000   23.2690000  
C 15.7070000   17.4890000   22.1600000  
C 17.0220000   17.0880000   21.7350000  
C 17.7220000   15.9860000   22.3570000  
C 15.0360000   15.5360000   25.0530000  
C 13.9340000   16.2570000   25.0940000  
N 14.0130000   17.0790000   23.9380000  
O 13.0890000   15.3040000   27.0740000  
C 12.8730000   16.2620000   26.1470000  
O 11.9930000   17.1090000   26.2830000  
O 17.6230000   17.7470000   20.7150000  
O 18.9070000   15.5300000   21.9290000  
H 15.3290000   14.8390000   25.8440000  
H 13.9660000   14.9600000   26.7910000  
H 13.2640000   17.7140000   23.6440000  
H 17.6200000   18.6950000   21.0910000  
H 19.1250000   15.9930000   21.1660000  
C 14.9850000   18.7040000   21.5890000  
C 15.3970000   19.9800000   21.9250000  
C 14.8840000   21.0770000   21.2590000  
C 14.0170000   21.0130000   20.2380000  
C 13.5150000   19.7700000   19.8430000  
C 14.0230000   18.6260000   20.4960000  
C 16.4910000   20.4450000   22.7570000  
C 16.6190000   21.8450000   22.4550000  
N 15.6030000   22.2150000   21.5450000  
O 18.5560000   22.1790000   23.7190000  
C 17.6520000   22.7820000   22.8910000  
O 17.7880000   23.8990000   22.4590000  
O 12.5780000   19.7130000   18.8290000  
O 13.4720000   17.4030000   20.0930000  
H 17.2860000   19.9210000   23.3290000  
H 18.0330000   21.3890000   23.9160000  
H 15.3880000   23.1440000   21.1920000  
H 12.6120000   20.4980000   18.2640000  
H 12.9850000   17.5120000   19.2350000  
C 13.5180000   22.2960000   19.6100000  
C 13.6580000   22.4290000   18.2290000  
C 13.0830000   23.4390000   17.4690000  
C 12.4290000   24.4590000   18.1910000  
C 12.3620000   24.4250000   19.6410000  
C 12.8910000   23.3120000   20.3500000  
C 14.4630000   21.6810000   17.2340000  
C 14.4020000   22.4020000   16.0490000  
N 13.5260000   23.4270000   16.1640000  
O 15.9770000   21.0760000   15.0080000  
C 15.1800000   22.1000000   14.8160000  
O 15.1660000   22.6530000   13.7620000  
O 11.7210000   25.5200000   20.2940000  
O 12.7580000   23.2830000   21.7160000  
H 15.1630000   20.9010000   17.3000000  
H 15.9440000   20.6960000   15.8880000  
H 13.2800000   24.0380000   15.4440000  
H 11.5230000   25.0880000   21.1740000  
H 13.2600000   22.4510000   21.9740000  
H 11.9860000   25.3220000   17.7100000  
