76
010 
C 16.4240000   10.8100000   22.7630000  
C 15.9140000   10.1840000   21.5190000  
C 15.3670000   10.9000000   20.5160000  
C 15.2310000   12.3000000   20.5790000  
C 15.6170000   13.0310000   21.6820000  
C 16.2920000   12.3870000   22.8450000  
C 14.6780000   10.4970000   19.3180000  
C 14.1140000   11.6460000   18.7400000  
N 14.5450000   12.7410000   19.5260000  
O 13.3710000   10.6990000   16.7210000  
C 13.4680000   11.8640000   17.4010000  
O 12.9580000   12.9280000   17.0250000  
O 16.8000000   13.0050000   23.7450000  
O 17.1090000   10.2950000   23.6250000  
H 15.9410000    9.0870000   21.6140000  
H 14.7470000    9.4520000   18.9150000  
H 13.6420000    9.9550000   17.2810000  
H 14.4330000   13.7170000   19.2820000  
C 15.3720000   14.4360000   21.5970000  
C 14.7570000   15.1170000   22.6360000  
C 14.7050000   16.4820000   22.5530000  
C 15.2570000   17.2770000   21.5540000  
C 15.9810000   16.6260000   20.5800000  
C 16.0700000   15.2370000   20.6330000  
C 14.0730000   14.8010000   23.8040000  
C 13.5610000   15.9820000   24.3530000  
N 14.0760000   17.0390000   23.6430000  
O 12.7520000   14.9480000   26.3100000  
C 12.7870000   16.0640000   25.5540000  
O 12.3180000   17.0940000   25.9550000  
O 16.5660000   17.3290000   19.5700000  
O 16.9350000   14.6680000   19.7660000  
H 14.0480000   13.8680000   24.2970000  
H 13.2100000   14.2450000   25.8880000  
H 13.9210000   18.0150000   23.9120000  
H 16.6050000   18.2690000   19.9710000  
H 17.5070000   15.4160000   19.3610000  
C 15.1960000   18.7090000   21.6260000  
C 15.9000000   19.3780000   22.6640000  
C 15.9300000   20.7490000   22.6470000  
C 15.2840000   21.5840000   21.7260000  
C 14.5430000   20.8830000   20.7130000  
C 14.5100000   19.5010000   20.6600000  
C 16.6650000   18.9240000   23.7840000  
C 17.2170000   20.1120000   24.4120000  
N 16.7470000   21.2460000   23.6640000  
O 18.1730000   19.0160000   26.2360000  
C 18.0790000   20.2420000   25.6350000  
O 18.5860000   21.2390000   25.9990000  
O 13.7760000   21.5270000   19.8240000  
O 13.8210000   18.9130000   19.6360000  
H 16.9370000   17.9070000   23.9800000  
H 17.5910000   18.3720000   25.7440000  
H 17.0120000   22.2150000   23.7920000  
H 13.9610000   22.4620000   19.9550000  
H 13.3590000   19.6290000   19.1480000  
C 15.2790000   23.0350000   21.8270000  
C 16.0480000   23.8080000   20.9440000  
C 16.0950000   25.1860000   21.0530000  
C 15.3810000   25.8310000   22.0030000  
C 14.4930000   25.1200000   22.8630000  
C 14.5130000   23.7420000   22.7890000  
C 17.0360000   23.4950000   19.9010000  
C 17.4570000   24.7410000   19.4370000  
N 16.9270000   25.8340000   20.1860000  
O 19.3190000   23.8680000   18.1870000  
C 18.5320000   24.9110000   18.4880000  
O 18.6950000   25.9730000   17.9010000  
O 13.6510000   25.8200000   23.7170000  
O 13.7370000   23.0300000   23.6920000  
H 17.2080000   22.5440000   19.3150000  
H 19.0700000   23.1770000   18.8770000  
H 17.0660000   26.7770000   20.0310000  
H 13.1650000   25.2130000   24.3560000  
H 13.6980000   22.0900000   23.2560000  
H 15.5390000   26.8930000   22.1830000  
