76
010 
C 15.2650000   18.0640000   29.3650000  
C 13.8000000   18.1900000   29.6710000  
C 12.9510000   18.3550000   28.5820000  
C 13.3480000   18.3100000   27.2430000  
C 14.6310000   18.2800000   26.7880000  
C 15.7180000   18.2130000   27.8430000  
C 11.5550000   18.6180000   28.6120000  
C 11.0790000   18.4920000   27.2740000  
N 12.1920000   18.3820000   26.4850000  
O  8.7450000   18.4610000   27.8730000  
C  9.6390000   18.3730000   26.8470000  
O  9.2790000   18.1970000   25.7170000  
O 16.9130000   18.2940000   27.5400000  
O 16.0820000   17.8780000   30.3160000  
H 13.4880000   18.1120000   30.7050000  
H 10.8730000   18.7000000   29.5400000  
H  9.3370000   18.5030000   28.6550000  
H 12.1830000   18.2400000   25.5290000  
C 14.8750000   18.1980000   25.3510000  
C 15.4770000   19.2040000   24.6720000  
C 15.6520000   19.1700000   23.3390000  
C 15.2550000   18.0000000   22.5670000  
C 14.6480000   16.9640000   23.2470000  
C 14.4330000   17.0620000   24.6260000  
C 16.0280000   20.4640000   25.0780000  
C 16.3850000   21.1690000   23.9670000  
N 16.2100000   20.3080000   22.8210000  
O 17.2440000   23.1540000   25.0250000  
C 16.8890000   22.5340000   23.8570000  
O 17.0010000   23.0270000   22.7460000  
O 14.2660000   15.8230000   22.6240000  
O 14.0190000   15.8990000   25.3570000  
H 16.0430000   20.7940000   26.1310000  
H 16.8750000   22.5820000   25.7210000  
H 16.5310000   20.5750000   21.8870000  
H 14.5310000   15.9170000   21.6820000  
H 14.2730000   15.3080000   24.6860000  
C 15.3860000   17.9880000   21.1210000  
C 16.7060000   18.1080000   20.5720000  
C 16.9280000   18.1800000   19.2260000  
C 15.9200000   18.1390000   18.2510000  
C 14.6170000   18.2130000   18.7930000  
C 14.3170000   18.0930000   20.1510000  
C 18.0340000   18.0300000   21.2520000  
C 18.9770000   18.1080000   20.2030000  
N 18.2970000   18.0680000   18.9620000  
O 20.9360000   18.1830000   21.5270000  
C 20.4070000   18.1840000   20.2830000  
O 21.1330000   18.1480000   19.3060000  
O 13.5540000   18.1830000   17.9010000  
O 13.0700000   17.7460000   20.4720000  
H 18.2860000   17.9390000   22.3340000  
H 20.1040000   18.1240000   22.0720000  
H 18.7000000   17.9500000   17.9970000  
H 13.7670000   18.2830000   16.9900000  
H 12.5430000   17.8190000   19.6800000  
C 16.1130000   18.0910000   16.7680000  
C 16.3540000   16.8240000   16.0800000  
C 16.5390000   16.8680000   14.6760000  
C 16.4110000   18.0150000   13.8940000  
C 16.0710000   19.2330000   14.5500000  
C 15.9640000   19.3170000   15.9860000  
C 16.4160000   15.4770000   16.5710000  
C 16.8820000   14.7980000   15.4510000  
N 16.8800000   15.5800000   14.2950000  
O 16.9270000   12.6450000   16.4380000  
C 17.0980000   13.3470000   15.3040000  
O 17.4800000   12.8870000   14.2160000  
O 15.9850000   20.3720000   13.7800000  
O 15.7550000   20.5500000   16.5790000  
H 16.3510000   15.1890000   17.5980000  
H 16.7160000   13.2730000   17.1310000  
H 17.1050000   15.2020000   13.4120000  
H 15.9520000   21.2370000   14.2200000  
H 16.0870000   20.4670000   17.4940000  
H 16.5140000   17.9200000   12.8270000  
