76
010 
C 18.3780000   17.3680000   28.8600000  
C 17.3990000   16.4620000   29.3850000  
C 16.4450000   15.8500000   28.6300000  
C 16.2620000   16.1200000   27.2740000  
C 17.0700000   17.0020000   26.5910000  
C 18.2300000   17.6530000   27.2850000  
C 15.5080000   14.8180000   28.9450000  
C 14.8010000   14.5880000   27.7630000  
N 15.2780000   15.3390000   26.7320000  
O 13.2350000   13.0880000   28.7660000  
C 13.6360000   13.6890000   27.6500000  
O 13.2040000   13.3360000   26.6040000  
O 19.0070000   18.4590000   26.8300000  
O 19.2310000   17.9020000   29.5620000  
H 17.5490000   16.1610000   30.4140000  
H 15.3870000   14.3100000   29.8880000  
H 13.8050000   13.4320000   29.4700000  
H 14.9240000   15.2950000   25.7520000  
C 16.7880000   17.2830000   25.1670000  
C 16.4930000   18.6460000   24.7900000  
C 16.1500000   18.9250000   23.5250000  
C 16.0730000   18.0530000   22.4880000  
C 16.4690000   16.7090000   22.7640000  
C 16.8110000   16.3500000   24.1200000  
C 16.2400000   19.8660000   25.5790000  
C 15.7670000   20.7970000   24.6650000  
N 15.7110000   20.2410000   23.3780000  
O 14.9770000   22.1880000   26.2950000  
C 15.1950000   22.1170000   25.0080000  
O 14.8930000   22.9870000   24.2150000  
O 16.2520000   15.7200000   21.8720000  
O 17.2600000   15.0870000   24.4330000  
H 16.2740000   20.0500000   26.6990000  
H 15.6030000   21.5580000   26.7110000  
H 15.4130000   20.7060000   22.5680000  
H 16.3080000   15.9810000   20.9530000  
H 17.1380000   14.4770000   23.7640000  
C 15.5010000   18.3900000   21.1560000  
C 16.4370000   18.5940000   20.0960000  
C 16.1070000   19.0750000   18.8580000  
C 14.7870000   19.3660000   18.4370000  
C 13.8290000   19.1940000   19.5090000  
C 14.1630000   18.6570000   20.7990000  
C 17.8290000   18.3740000   20.0170000  
C 18.2770000   18.7610000   18.7480000  
N 17.1270000   19.0260000   17.9660000  
O 20.6180000   18.2110000   19.0370000  
C 19.6920000   18.9020000   18.3230000  
O 19.9390000   19.4350000   17.2440000  
O 12.5220000   19.3090000   19.2240000  
O 13.1630000   18.5480000   21.6650000  
H 18.4780000   18.0700000   20.7950000  
H 20.2260000   17.6480000   19.7910000  
H 17.1260000   19.2200000   17.0120000  
H 12.4100000   19.5520000   18.2650000  
H 12.3910000   18.8940000   21.3000000  
C 14.4380000   19.7210000   17.0440000  
C 13.6670000   18.8020000   16.2390000  
C 13.1290000   19.2310000   15.0350000  
C 13.3190000   20.4980000   14.5100000  
C 14.0720000   21.3980000   15.2230000  
C 14.6340000   21.0440000   16.5060000  
C 13.4910000   17.3490000   16.2840000  
C 12.5950000   17.0330000   15.2750000  
N 12.3710000   18.1950000   14.4460000  
O 12.2310000   14.7570000   15.9520000  
C 12.0630000   15.7300000   14.9990000  
O 11.2530000   15.5520000   14.1040000  
O 14.2460000   22.7290000   14.7870000  
O 15.3670000   22.0120000   17.1960000  
H 13.8390000   16.6180000   17.0130000  
H 12.9050000   15.0790000   16.5970000  
H 11.7940000   18.2600000   13.6490000  
H 14.9340000   23.1500000   15.4280000  
H 16.2270000   21.6050000   17.4620000  
H 12.8920000   20.7760000   13.5560000  
