76
010 
C  8.5540000   17.8360000   24.9200000  
C  8.7860000   18.3820000   26.2680000  
C  9.9370000   19.0400000   26.5810000  
C 11.0220000   18.9380000   25.6790000  
C 11.0660000   18.3800000   24.4550000  
C  9.7800000   17.8360000   23.9200000  
C 10.3000000   19.7970000   27.7410000  
C 11.6620000   20.1750000   27.5410000  
N 12.0880000   19.5370000   26.2980000  
O 12.1610000   21.2200000   29.6810000  
C 12.5530000   21.0180000   28.4530000  
O 13.6100000   21.4570000   28.0040000  
O  9.6410000   17.3520000   22.8080000  
O  7.4800000   17.2640000   24.6760000  
H  7.9930000   18.3010000   26.9200000  
H  9.6630000   19.9850000   28.6330000  
H 11.3550000   20.6390000   29.6050000  
H 13.0280000   19.5660000   25.8810000  
C 12.3130000   18.4480000   23.7190000  
C 13.1130000   17.3730000   23.6000000  
C 14.2460000   17.4050000   22.8790000  
C 14.8690000   18.5760000   22.3350000  
C 14.0460000   19.7070000   22.4350000  
C 12.8100000   19.6220000   23.1160000  
C 12.8920000   16.0240000   23.9660000  
C 13.9890000   15.2890000   23.4420000  
N 14.8820000   16.2000000   22.8090000  
O 13.3380000   13.1230000   24.1760000  
C 14.2560000   13.8990000   23.5260000  
O 15.3150000   13.3290000   23.1590000  
O 14.3820000   20.9010000   21.8960000  
O 11.9740000   20.7080000   23.1360000  
H 11.9900000   15.6760000   24.3940000  
H 12.6110000   13.6980000   24.3620000  
H 15.6530000   15.9610000   22.2250000  
H 15.3290000   20.7960000   21.6070000  
H 12.4920000   21.4410000   22.7960000  
C 16.1850000   18.5690000   21.6370000  
C 16.2700000   17.8880000   20.3870000  
C 17.4700000   17.7480000   19.7330000  
C 18.7230000   18.1700000   20.2130000  
C 18.6450000   18.9720000   21.3770000  
C 17.4450000   19.1190000   22.1070000  
C 15.2190000   17.2630000   19.5770000  
C 15.8880000   16.7960000   18.4360000  
N 17.2680000   17.0200000   18.5360000  
O 13.9670000   16.3480000   17.1850000  
C 15.2710000   16.0790000   17.3260000  
O 15.8190000   15.3750000   16.5120000  
O 19.8120000   19.5820000   21.7490000  
O 17.4790000   19.9070000   23.1470000  
H 14.1590000   17.2330000   19.8000000  
H 13.7660000   17.1340000   17.7010000  
H 17.9250000   16.7660000   17.7460000  
H 20.4620000   19.1790000   21.1580000  
H 18.4180000   20.1980000   23.2100000  
C 20.0310000   17.8940000   19.5440000  
C 20.2660000   18.3420000   18.2030000  
C 21.3360000   17.9660000   17.4230000  
C 22.3910000   17.3280000   18.0260000  
C 22.2170000   16.8790000   19.4060000  
C 21.0160000   17.0350000   20.1550000  
C 19.4840000   19.2140000   17.3900000  
C 20.1530000   19.3790000   16.1770000  
N 21.1860000   18.4280000   16.1650000  
O 18.6570000   20.8930000   15.2970000  
C 19.7650000   20.1690000   15.0370000  
O 20.3600000   20.1200000   13.9820000  
O 23.2800000   16.2620000   19.9890000  
O 20.7620000   16.5460000   21.3880000  
H 18.5310000   19.6110000   17.6970000  
H 18.5600000   20.5650000   16.1690000  
H 21.5840000   18.0390000   15.2710000  
H 22.8030000   15.7900000   20.7590000  
H 19.7560000   16.7510000   21.4990000  
H 23.3930000   17.3260000   17.4660000  
