76
010 
C 11.0900000   11.9510000   22.4100000  
C  9.8000000   12.3140000   21.6310000  
C  9.6480000   13.4910000   20.9210000  
C 10.7200000   14.4210000   20.8600000  
C 11.8670000   14.3500000   21.6400000  
C 12.0920000   13.1290000   22.4960000  
C  8.6540000   13.9870000   19.9810000  
C  9.1870000   15.1620000   19.4290000  
N 10.3520000   15.4380000   20.0840000  
O  7.5120000   15.4410000   17.8700000  
C  8.5900000   16.0330000   18.4090000  
O  8.9270000   17.1300000   18.1070000  
O 13.1090000   12.9730000   23.1510000  
O 11.2360000   10.9030000   22.9920000  
H  8.9750000   11.5500000   21.5790000  
H  7.6860000   13.5190000   19.8000000  
H  7.4670000   14.5310000   18.2020000  
H 10.8180000   16.3560000   20.1260000  
C 12.8590000   15.4370000   21.5610000  
C 13.1840000   16.1070000   22.7810000  
C 14.1710000   17.0130000   22.7810000  
C 14.9210000   17.4670000   21.6830000  
C 14.6650000   16.7230000   20.5210000  
C 13.6460000   15.7320000   20.4030000  
C 12.5420000   16.1130000   24.0820000  
C 13.2490000   17.0490000   24.8500000  
N 14.3170000   17.5420000   24.0260000  
O 11.8140000   17.1070000   26.8100000  
C 12.9840000   17.5190000   26.2420000  
O 13.7780000   18.1810000   26.8450000  
O 15.3290000   17.0300000   19.3560000  
O 13.5160000   15.0850000   19.2410000  
H 11.6370000   15.6460000   24.4730000  
H 11.5170000   16.4270000   26.2400000  
H 15.0380000   18.1570000   24.3640000  
H 16.2020000   17.1860000   19.6650000  
H 14.2710000   15.2930000   18.5990000  
C 15.9960000   18.5260000   21.7610000  
C 17.3500000   18.1320000   21.7320000  
C 18.3080000   19.1200000   21.8100000  
C 18.0920000   20.4840000   21.9860000  
C 16.7310000   20.8300000   22.1320000  
C 15.7030000   19.9040000   21.9480000  
C 18.0710000   16.9030000   21.8060000  
C 19.4450000   17.2590000   21.7580000  
N 19.5580000   18.6770000   21.8350000  
O 20.2230000   15.1450000   21.5420000  
C 20.5480000   16.4020000   21.5000000  
O 21.6540000   16.8910000   21.4450000  
O 16.3590000   22.1290000   22.4660000  
O 14.3920000   20.2830000   22.0140000  
H 17.6200000   15.9480000   21.7440000  
H 19.2250000   15.1340000   21.6400000  
H 20.4020000   19.1580000   21.9900000  
H 17.2330000   22.5410000   22.3350000  
H 14.3680000   21.2590000   22.3360000  
C 19.2070000   21.4850000   22.3780000  
C 19.5870000   22.3860000   21.4510000  
C 20.6040000   23.2900000   21.7140000  
C 21.1550000   23.4200000   22.9680000  
C 20.7760000   22.5160000   23.9450000  
C 19.7870000   21.5460000   23.6680000  
C 19.2390000   22.5740000   20.0120000  
C 20.0800000   23.6280000   19.6030000  
N 20.9810000   23.9710000   20.6020000  
O 19.0410000   23.8600000   17.4660000  
C 19.9850000   24.3060000   18.3440000  
O 20.6670000   25.2420000   17.9920000  
O 21.2540000   22.5680000   25.1780000  
O 19.4180000   20.6540000   24.6030000  
H 18.3540000   22.1190000   19.5170000  
H 18.6530000   23.1640000   18.0060000  
H 21.6080000   24.7760000   20.5140000  
H 20.8180000   21.9720000   25.7730000  
H 18.9200000   19.9150000   24.1670000  
H 21.9960000   24.1540000   23.1700000  
