76
010 
C  9.7050000   14.3290000   24.7420000  
C  8.8040000   14.0370000   23.5560000  
C  9.3090000   14.4390000   22.3490000  
C 10.5600000   14.9460000   22.1120000  
C 11.4550000   15.2640000   23.1150000  
C 10.9820000   15.1460000   24.4880000  
C  8.7650000   14.2030000   21.0290000  
C  9.7540000   14.4590000   20.0600000  
N 10.8660000   14.8910000   20.7840000  
O  8.4240000   14.0660000   18.0490000  
C  9.6230000   14.3720000   18.6260000  
O 10.4900000   14.7810000   17.8630000  
O 11.5870000   15.6320000   25.4260000  
O  9.3340000   13.9150000   25.8570000  
H  7.8430000   13.4320000   23.6520000  
H  7.7590000   13.7590000   20.8500000  
H  7.7780000   13.8400000   18.7230000  
H 11.8170000   15.1090000   20.4450000  
C 12.7240000   15.9220000   22.8130000  
C 12.8510000   17.3290000   22.7730000  
C 14.0380000   17.9630000   22.5370000  
C 15.0880000   17.1940000   22.0480000  
C 15.0010000   15.7660000   22.0080000  
C 13.7600000   15.1500000   22.2890000  
C 11.9590000   18.3390000   23.2970000  
C 12.6560000   19.5820000   23.2690000  
N 13.9900000   19.3280000   22.7710000  
O 10.9320000   20.8310000   24.2370000  
C 12.0790000   20.8980000   23.5960000  
O 12.6920000   21.9280000   23.3920000  
O 16.1020000   15.0050000   21.6210000  
O 13.6280000   13.7280000   22.1380000  
H 10.9750000   18.1880000   23.7090000  
H 10.7420000   19.8820000   24.2170000  
H 14.6770000   19.9720000   22.4900000  
H 16.9000000   15.5410000   21.4740000  
H 14.4480000   13.4140000   21.7070000  
C 16.3040000   17.8860000   21.5630000  
C 17.0150000   18.6920000   22.4920000  
C 17.8900000   19.6460000   22.0730000  
C 18.2620000   19.8320000   20.7080000  
C 17.6760000   18.9070000   19.7720000  
C 16.6010000   18.0640000   20.1900000  
C 16.9600000   18.7750000   23.9150000  
C 17.6130000   19.9540000   24.1960000  
N 18.2010000   20.4900000   23.0680000  
O 17.2410000   19.9190000   26.4940000  
C 17.7330000   20.6480000   25.5150000  
O 18.2620000   21.6980000   25.7250000  
O 18.1150000   18.9740000   18.5100000  
O 15.8710000   17.4400000   19.2400000  
H 16.3420000   18.1050000   24.5670000  
H 16.8690000   19.2110000   25.9840000  
H 18.8520000   21.2520000   23.0350000  
H 18.8850000   19.5410000   18.5520000  
H 16.1060000   17.6850000   18.3390000  
C 19.3050000   20.8370000   20.3520000  
C 20.6060000   20.3850000   20.2210000  
C 21.5950000   21.2430000   19.8710000  
C 21.3690000   22.5900000   19.6090000  
C 20.0330000   23.0510000   19.7800000  
C 19.0280000   22.1840000   20.1610000  
C 21.1930000   19.0180000   20.1630000  
C 22.4950000   19.1430000   19.6790000  
N 22.7670000   20.5660000   19.6550000  
O 22.8590000   16.8240000   19.4430000  
C 23.4680000   18.0460000   19.3550000  
O 24.6420000   18.2030000   19.0720000  
O 19.8260000   24.4270000   19.5610000  
O 17.7720000   22.6670000   20.2910000  
H 20.7470000   18.1410000   20.5470000  
H 21.9690000   16.9100000   19.7900000  
H 23.6860000   20.8820000   19.3300000  
H 18.8500000   24.6560000   19.6550000  
H 17.1370000   22.0060000   20.6280000  
H 22.2040000   23.2380000   19.3070000  
