76
010 
C 14.7320000   16.1160000   28.9100000  
C 15.9660000   16.4910000   29.6070000  
C 16.9500000   17.2340000   28.8990000  
C 16.7810000   17.5140000   27.5330000  
C 15.6480000   17.2740000   26.8370000  
C 14.4630000   16.6480000   27.4920000  
C 18.2140000   17.8120000   29.3240000  
C 18.8120000   18.4330000   28.1920000  
N 17.8470000   18.2350000   27.2230000  
O 20.5780000   19.3920000   29.3730000  
C 20.0330000   19.2740000   28.1120000  
O 20.6030000   19.7740000   27.1820000  
O 13.3760000   16.5750000   26.9540000  
O 13.8010000   15.7070000   29.6000000  
H 15.9630000   16.3700000   30.6480000  
H 18.5690000   17.8720000   30.3490000  
H 19.9560000   19.0150000   30.0470000  
H 17.9230000   18.5360000   26.2750000  
C 15.6730000   17.5810000   25.4190000  
C 16.2430000   16.7000000   24.4380000  
C 16.1860000   16.9420000   23.0650000  
C 15.7480000   18.1900000   22.5550000  
C 15.1810000   19.0650000   23.5370000  
C 15.0410000   18.7550000   24.9270000  
C 16.7730000   15.3570000   24.5460000  
C 16.9550000   14.8060000   23.2560000  
N 16.7520000   15.9200000   22.4020000  
O 17.8880000   12.6340000   23.8480000  
C 17.5200000   13.4330000   22.8730000  
O 17.5750000   13.0750000   21.7230000  
O 14.5860000   20.2240000   23.0560000  
O 14.4430000   19.6060000   25.7440000  
H 17.0560000   14.8300000   25.4420000  
H 17.6970000   13.1270000   24.6740000  
H 16.9560000   15.9840000   21.4250000  
H 14.6940000   20.2500000   22.0800000  
H 14.1670000   20.2920000   25.1340000  
C 15.7480000   18.4380000   21.0830000  
C 14.9820000   17.6410000   20.1820000  
C 14.8390000   17.9380000   18.8420000  
C 15.3950000   19.0270000   18.2000000  
C 16.1640000   19.8690000   19.0740000  
C 16.3490000   19.6170000   20.4720000  
C 13.9930000   16.6040000   20.4640000  
C 13.3720000   16.2890000   19.2730000  
N 13.9310000   17.1030000   18.2410000  
O 11.9160000   14.6310000   20.0790000  
C 12.1900000   15.4180000   19.0590000  
O 11.6830000   15.2700000   17.9520000  
O 16.7440000   21.0370000   18.6850000  
O 17.1680000   20.4250000   21.2350000  
H 13.7030000   16.2020000   21.4530000  
H 12.3130000   15.1210000   20.7810000  
H 13.4720000   17.1760000   17.3350000  
H 16.4930000   21.1270000   17.6880000  
H 17.7030000   20.9060000   20.6690000  
C 15.2480000   19.1530000   16.7230000  
C 14.6140000   20.2680000   16.1750000  
C 14.3490000   20.3950000   14.8700000  
C 14.9110000   19.4750000   13.9620000  
C 15.5990000   18.3240000   14.4610000  
C 15.7040000   18.1130000   15.8730000  
C 13.9210000   21.3440000   16.8420000  
C 13.2370000   22.0250000   15.8750000  
N 13.5380000   21.4680000   14.6110000  
O 12.0810000   23.4750000   17.4350000  
C 12.4700000   23.2730000   16.1640000  
O 12.0530000   23.9960000   15.2500000  
O 16.0060000   17.4120000   13.6300000  
O 16.3000000   16.9970000   16.3550000  
H 13.8190000   21.4870000   17.9810000  
H 12.5150000   22.7920000   17.9640000  
H 13.1450000   21.8120000   13.7350000  
H 16.4200000   16.6310000   14.0180000  
H 16.3740000   17.0950000   17.2840000  
H 14.9630000   19.6080000   12.9020000  
