76
010 
C  9.4350000   20.2920000   25.7060000  
C  9.8640000   19.9520000   27.1140000  
C 11.1330000   19.5050000   27.4180000  
C 12.0990000   19.3170000   26.4040000  
C 11.8260000   19.6330000   25.0530000  
C 10.4640000   20.1610000   24.5870000  
C 11.6890000   19.0010000   28.5730000  
C 12.9750000   18.4640000   28.2260000  
N 13.2110000   18.7210000   26.9030000  
O 13.4370000   17.5360000   30.2900000  
C 13.9100000   17.7010000   29.0370000  
O 14.8930000   17.0420000   28.6870000  
O 10.1580000   20.3450000   23.4070000  
O  8.2550000   20.7120000   25.5360000  
H  9.1940000   20.1830000   27.8860000  
H 11.2970000   19.0680000   29.5820000  
H 12.5400000   17.9840000   30.4390000  
H 13.9920000   18.5040000   26.3530000  
C 12.9130000   19.3330000   24.0980000  
C 13.2390000   18.0350000   23.7750000  
C 14.2860000   17.7980000   22.9310000  
C 15.1540000   18.7430000   22.4290000  
C 14.6930000   20.0890000   22.6980000  
C 13.6190000   20.3940000   23.5150000  
C 12.6450000   16.7530000   24.0750000  
C 13.5750000   15.8330000   23.5700000  
N 14.5240000   16.5130000   22.8000000  
O 12.5340000   13.8570000   24.5290000  
C 13.5960000   14.3820000   23.8080000  
O 14.5310000   13.7120000   23.3720000  
O 15.4870000   21.0820000   22.1610000  
O 13.3640000   21.6620000   23.8330000  
H 11.6940000   16.5300000   24.5740000  
H 11.9680000   14.6360000   24.7400000  
H 15.2520000   16.0350000   22.2340000  
H 16.2120000   20.6630000   21.6770000  
H 13.9630000   22.2550000   23.3980000  
C 16.2620000   18.2820000   21.5060000  
C 15.9860000   18.3450000   20.1540000  
C 16.9160000   17.8750000   19.2670000  
C 18.1330000   17.2000000   19.6020000  
C 18.4220000   17.1900000   21.0160000  
C 17.4180000   17.6070000   21.9500000  
C 14.8430000   18.7070000   19.4020000  
C 15.1530000   18.3320000   18.0660000  
N 16.4820000   17.9020000   18.0070000  
O 12.9080000   18.4840000   17.2710000  
C 14.2260000   18.3410000   16.9170000  
O 14.4440000   18.0580000   15.7470000  
O 19.5760000   16.7460000   21.5840000  
O 17.5520000   17.4020000   23.3150000  
H 13.9050000   19.1040000   19.7390000  
H 12.8730000   18.7970000   18.2060000  
H 17.0350000   17.6570000   17.1660000  
H 20.0980000   16.4730000   20.8770000  
H 18.4890000   17.2150000   23.4810000  
C 19.1200000   16.7760000   18.5450000  
C 19.5090000   17.7260000   17.5340000  
C 20.4480000   17.3720000   16.6310000  
C 21.0450000   16.1080000   16.5550000  
C 20.6710000   15.1290000   17.4810000  
C 19.7020000   15.4590000   18.4860000  
C 19.1780000   19.1270000   17.2680000  
C 20.1200000   19.5660000   16.3160000  
N 20.9260000   18.4880000   15.9800000  
O 19.3560000   21.8880000   16.3170000  
C 20.2540000   20.9760000   15.8140000  
O 20.9890000   21.2030000   14.9000000  
O 21.0390000   13.8220000   17.3470000  
O 19.3840000   14.6240000   19.5240000  
H 18.5890000   19.8050000   17.8600000  
H 19.0350000   21.3250000   17.0060000  
H 21.8630000   18.4310000   15.5030000  
H 20.7180000   13.1920000   18.0120000  
H 18.6090000   14.9140000   20.0240000  
H 21.5990000   15.7330000   15.6730000  
