76
010 
C 15.9750000   11.2370000   24.9570000  
C 17.3740000   10.8910000   24.8980000  
C 18.2930000   11.7390000   24.3600000  
C 17.9380000   12.9770000   23.7850000  
C 16.6790000   13.5140000   23.8640000  
C 15.5640000   12.7040000   24.4250000  
C 19.6610000   11.5160000   23.9870000  
C 20.1430000   12.6070000   23.2970000  
N 19.0300000   13.4850000   23.0760000  
O 22.2830000   11.6530000   22.9710000  
C 21.5440000   12.8040000   22.8660000  
O 22.0020000   13.8630000   22.5130000  
O 14.4140000   13.1290000   24.5470000  
O 15.1700000   10.4270000   25.3880000  
H 17.6140000    9.8680000   25.2500000  
H 20.1270000   10.5850000   24.2430000  
H 21.5760000   11.0350000   23.2450000  
H 19.1360000   14.3120000   22.4810000  
C 16.3890000   14.8480000   23.1660000  
C 15.4750000   15.0090000   22.1230000  
C 15.1440000   16.2430000   21.5980000  
C 15.6600000   17.4730000   21.9930000  
C 16.5610000   17.3680000   23.1430000  
C 16.9600000   16.0550000   23.6640000  
C 14.7890000   14.0000000   21.3480000  
C 13.9340000   14.7150000   20.4740000  
N 14.3160000   16.0570000   20.4850000  
O 12.6680000   12.7930000   19.7790000  
C 12.8190000   14.1280000   19.6940000  
O 12.0660000   14.7760000   19.0420000  
O 17.0450000   18.5480000   23.6690000  
O 17.7640000   16.0600000   24.7290000  
H 14.7920000   12.9360000   21.5560000  
H 13.1230000   12.5100000   20.6400000  
H 13.8490000   16.7830000   19.9350000  
H 16.7320000   19.2230000   23.0650000  
H 18.0720000   16.9630000   24.8720000  
C 15.2820000   18.7390000   21.2410000  
C 14.1070000   19.3830000   21.8010000  
C 13.6730000   20.5280000   21.2010000  
C 14.3560000   21.2610000   20.1790000  
C 15.4360000   20.5910000   19.5580000  
C 15.8960000   19.3720000   20.1390000  
C 13.2930000   19.1610000   22.9980000  
C 12.3320000   20.1590000   23.0230000  
N 12.5740000   21.0360000   21.9030000  
O 11.2050000   19.4690000   24.9640000  
C 11.2530000   20.4690000   24.0410000  
O 10.4760000   21.4230000   24.0640000  
O 16.0310000   21.2250000   18.5420000  
O 17.0360000   18.7970000   19.5780000  
H 13.3640000   18.4140000   23.7520000  
H 11.7640000   18.7820000   24.6440000  
H 12.0470000   21.8320000   21.6350000  
H 15.6630000   22.1870000   18.5330000  
H 17.3720000   19.5580000   19.1320000  
C 13.9650000   22.5870000   19.7520000  
C 14.9180000   23.6640000   19.7770000  
C 14.5560000   24.8970000   19.2590000  
C 13.3360000   25.1160000   18.6860000  
C 12.3360000   24.1340000   18.6650000  
C 12.6610000   22.8570000   19.1040000  
C 16.2010000   23.7140000   20.4080000  
C 16.6790000   24.9690000   20.0330000  
N 15.7120000   25.6300000   19.3020000  
O 18.4960000   24.8850000   21.5250000  
C 17.9230000   25.5670000   20.5680000  
O 18.3580000   26.6170000   20.1030000  
O 11.2470000   24.3440000   17.8610000  
O 11.7450000   21.8520000   18.9600000  
H 16.6630000   23.0760000   21.0960000  
H 17.9530000   24.0830000   21.6550000  
H 15.7940000   26.5650000   18.9880000  
H 10.6870000   23.6370000   17.6980000  
H 11.9770000   21.0840000   19.6000000  
H 13.2430000   26.0210000   18.1340000  
