76
010 
C  8.0410000   18.5940000   24.1480000  
C  8.4470000   18.5740000   25.5830000  
C  9.7900000   18.4560000   25.9220000  
C 10.7750000   18.4950000   24.9540000  
C 10.6360000   18.6920000   23.6080000  
C  9.2120000   18.7590000   23.1170000  
C 10.4400000   18.0590000   27.2090000  
C 11.7970000   17.9600000   26.9830000  
N 12.0120000   18.2350000   25.6090000  
O 12.4510000   17.4150000   29.2050000  
C 12.8760000   17.6430000   27.9530000  
O 14.0320000   17.5840000   27.6300000  
O  9.0510000   18.8640000   21.9270000  
O  6.8570000   18.5610000   23.8050000  
H  7.7190000   18.5770000   26.3390000  
H  9.9940000   17.8940000   28.1950000  
H 11.5290000   17.1440000   29.1490000  
H 12.8670000   18.4230000   25.1820000  
C 11.9030000   18.5900000   22.8140000  
C 12.4260000   17.3750000   22.4690000  
C 13.6100000   17.3140000   21.8780000  
C 14.5020000   18.3630000   21.6320000  
C 13.9840000   19.6060000   22.0200000  
C 12.6830000   19.6970000   22.6700000  
C 11.8360000   16.0470000   22.4780000  
C 12.7470000   15.1930000   21.8250000  
N 13.9350000   15.9550000   21.6380000  
O 11.4310000   13.2410000   22.0900000  
C 12.6340000   13.7440000   21.6950000  
O 13.5650000   13.0220000   21.3160000  
O 14.8970000   20.6140000   21.9390000  
O 12.2680000   20.8730000   23.3160000  
H 10.9160000   15.6730000   22.8490000  
H 10.9220000   13.9280000   22.4210000  
H 14.8290000   15.6350000   21.4960000  
H 15.4410000   20.4610000   21.1820000  
H 12.9450000   21.4810000   23.1360000  
C 15.8790000   18.1380000   21.1010000  
C 16.1250000   18.6350000   19.8130000  
C 17.3860000   18.4880000   19.3290000  
C 18.4690000   17.8480000   19.9150000  
C 18.1420000   17.2310000   21.1140000  
C 16.9130000   17.3680000   21.7610000  
C 15.3470000   19.2660000   18.7040000  
C 16.3100000   19.5560000   17.7050000  
N 17.5630000   19.0630000   18.1180000  
O 14.8590000   20.5830000   15.9580000  
C 16.1450000   20.3240000   16.3890000  
O 17.0900000   20.6420000   15.7060000  
O 19.1520000   16.4380000   21.7140000  
O 16.7060000   16.7210000   22.9020000  
H 14.3080000   19.4820000   18.5010000  
H 14.2470000   20.1600000   16.6700000  
H 18.4060000   19.3280000   17.6290000  
H 19.9080000   16.4080000   21.0290000  
H 17.5320000   16.3180000   23.2350000  
C 19.8020000   17.8370000   19.3090000  
C 20.8610000   18.3970000   20.0630000  
C 22.1620000   18.2200000   19.6410000  
C 22.4520000   17.8040000   18.3530000  
C 21.4120000   17.3450000   17.5040000  
C 20.0850000   17.2960000   18.0510000  
C 20.9120000   19.2050000   21.2560000  
C 22.2350000   19.3640000   21.6110000  
N 23.0290000   18.7380000   20.5830000  
O 21.6700000   20.5750000   23.5430000  
C 22.7190000   20.1590000   22.7210000  
O 23.8740000   20.5300000   22.9250000  
O 21.7250000   16.8140000   16.2150000  
O 19.1630000   16.6480000   17.3370000  
H 20.0710000   19.7990000   21.5890000  
H 20.8950000   20.0360000   23.3160000  
H 24.0140000   18.4980000   20.6440000  
H 20.8800000   16.6660000   15.7900000  
H 18.3020000   16.8880000   17.7690000  
H 23.4300000   17.7290000   18.0230000  
