76
010 
C 18.4400000   12.7110000   26.5230000  
C 18.2510000   13.5190000   27.7640000  
C 17.4920000   14.6490000   27.7030000  
C 16.9560000   15.1870000   26.5480000  
C 17.0230000   14.5800000   25.3140000  
C 17.6950000   13.2480000   25.2790000  
C 17.1900000   15.6300000   28.7890000  
C 16.4970000   16.6930000   28.2150000  
N 16.3720000   16.3920000   26.8500000  
O 16.4210000   18.0260000   30.1110000  
C 15.9680000   17.9180000   28.8530000  
O 15.4070000   18.7730000   28.2250000  
O 17.7580000   12.5480000   24.3060000  
O 19.1360000   11.7090000   26.4350000  
H 18.6730000   13.1780000   28.6990000  
H 17.5950000   15.5600000   29.8080000  
H 16.8960000   17.2100000   30.3570000  
H 15.9110000   17.0100000   26.1720000  
C 16.4530000   15.4010000   24.2500000  
C 17.1440000   16.5340000   23.9180000  
C 16.6200000   17.4000000   22.9960000  
C 15.3850000   17.2040000   22.2230000  
C 14.6470000   16.0480000   22.5910000  
C 15.2050000   15.1330000   23.5790000  
C 18.4410000   17.0650000   24.3160000  
C 18.6120000   18.2400000   23.5560000  
N 17.4780000   18.3960000   22.7440000  
O 20.6440000   18.8580000   24.6350000  
C 19.7690000   19.1310000   23.6170000  
O 19.9360000   20.0280000   22.8320000  
O 13.4370000   15.7940000   21.9890000  
O 14.4490000   14.1520000   24.1320000  
H 19.0760000   16.6310000   25.1200000  
H 20.2420000   18.1210000   25.1590000  
H 17.4870000   19.0980000   21.9810000  
H 13.4280000   16.6130000   21.4900000  
H 13.5130000   14.3940000   24.0330000  
C 15.0300000   18.2360000   21.1690000  
C 15.6070000   18.1770000   19.8800000  
C 15.3800000   19.0890000   18.9070000  
C 14.5810000   20.1980000   19.0890000  
C 13.9750000   20.3190000   20.4090000  
C 14.2760000   19.3960000   21.4070000  
C 16.3690000   17.1190000   19.2330000  
C 16.4010000   17.3430000   17.8690000  
N 15.8900000   18.6150000   17.7270000  
O 17.3220000   15.3490000   17.3080000  
C 16.8200000   16.4330000   16.7760000  
O 16.8170000   16.6890000   15.5980000  
O 13.2190000   21.4680000   20.7370000  
O 13.6240000   19.4660000   22.6140000  
H 16.6640000   16.2470000   19.7480000  
H 17.2580000   15.4520000   18.2510000  
H 15.8570000   19.2240000   16.8640000  
H 13.0190000   21.8360000   19.8180000  
H 12.8510000   20.1690000   22.5170000  
C 14.2450000   21.2180000   18.0480000  
C 12.9450000   21.1660000   17.4980000  
C 12.5190000   22.1060000   16.6170000  
C 13.3930000   23.0320000   16.0850000  
C 14.7480000   23.0990000   16.5660000  
C 15.1730000   22.1610000   17.5190000  
C 11.7810000   20.3900000   17.8720000  
C 10.7180000   20.9850000   17.1730000  
N 11.1620000   22.0290000   16.4060000  
O  8.9240000   19.6320000   18.1560000  
C  9.2480000   20.6280000   17.2790000  
O  8.3430000   21.2680000   16.8110000  
O 15.5840000   24.0650000   16.1030000  
O 16.5060000   22.2780000   17.9300000  
H 11.6290000   19.5880000   18.6900000  
H  9.7650000   19.3230000   18.4690000  
H 10.5490000   22.6460000   15.9440000  
H 16.4480000   24.2070000   16.6220000  
H 16.7690000   21.4260000   18.3520000  
H 13.0990000   23.7470000   15.3240000  
