76
010 
C  9.9430000   12.7540000   20.8680000  
C  8.7220000   13.5560000   21.0860000  
C  8.9120000   14.7570000   21.6590000  
C 10.1360000   15.3830000   21.8260000  
C 11.3430000   14.8430000   21.4750000  
C 11.3610000   13.4450000   21.1320000  
C  7.8770000   15.7900000   21.9780000  
C  8.5520000   16.9620000   22.3010000  
N  9.9140000   16.7100000   22.0890000  
O  6.6070000   18.2450000   22.7470000  
C  7.9860000   18.2600000   22.6990000  
O  8.6280000   19.2900000   22.9490000  
O 12.3940000   12.8810000   20.9620000  
O  9.8450000   11.6300000   20.4220000  
H  7.8090000   13.0990000   20.7970000  
H  6.7690000   15.6640000   21.9940000  
H  6.4910000   17.2980000   22.4870000  
H 10.6070000   17.4280000   22.1270000  
C 12.5250000   15.6620000   21.4700000  
C 13.1170000   16.1420000   22.6400000  
C 14.2380000   16.9230000   22.5350000  
C 14.8650000   17.3390000   21.4200000  
C 14.3500000   16.7970000   20.2810000  
C 13.1830000   15.9940000   20.2960000  
C 12.8690000   15.8980000   24.0230000  
C 13.8090000   16.6420000   24.7180000  
N 14.6460000   17.2610000   23.7900000  
O 12.9900000   15.8680000   26.8490000  
C 13.9510000   16.5720000   26.2160000  
O 14.8480000   17.1790000   26.7840000  
O 14.9760000   17.1260000   19.1120000  
O 12.7000000   15.5290000   19.1190000  
H 12.1170000   15.2500000   24.4490000  
H 12.5730000   15.4400000   26.0660000  
H 15.5650000   17.6800000   24.0520000  
H 15.4910000   17.9200000   19.2850000  
H 13.2390000   15.9210000   18.4720000  
C 16.0940000   18.2770000   21.3510000  
C 17.3960000   17.8140000   20.9770000  
C 18.4880000   18.6350000   21.0790000  
C 18.4830000   19.9640000   21.6840000  
C 17.1670000   20.4860000   21.9540000  
C 16.0400000   19.6440000   21.7420000  
C 17.9590000   16.5510000   20.5560000  
C 19.3400000   16.6820000   20.5850000  
N 19.6670000   18.0170000   20.8500000  
O 19.7310000   14.4940000   19.6350000  
C 20.3260000   15.5780000   20.2110000  
O 21.4910000   15.6500000   20.5350000  
O 16.8760000   21.7460000   22.3930000  
O 14.8310000   20.1620000   22.0900000  
H 17.4150000   15.6930000   20.2460000  
H 18.8220000   14.6180000   19.4300000  
H 20.5350000   18.4500000   20.7550000  
H 17.6550000   21.9670000   22.8750000  
H 15.0190000   21.0510000   22.2990000  
C 19.7530000   20.7330000   22.0150000  
C 19.9750000   21.9190000   21.2310000  
C 21.2310000   22.5790000   21.3980000  
C 22.1820000   22.2040000   22.4090000  
C 21.8180000   21.1390000   23.2630000  
C 20.6130000   20.4150000   23.1020000  
C 19.3270000   22.5240000   20.0900000  
C 20.1720000   23.5880000   19.6650000  
N 21.2690000   23.5980000   20.4770000  
O 18.6170000   24.7980000   18.3330000  
C 19.9360000   24.6990000   18.7120000  
O 20.7440000   25.5860000   18.3750000  
O 22.7420000   20.7280000   24.1550000  
O 20.2830000   19.3250000   23.8720000  
H 18.2960000   22.3150000   19.7030000  
H 18.1660000   24.2080000   18.9460000  
H 21.9860000   24.3420000   20.4690000  
H 22.3920000   20.1670000   24.8230000  
H 19.2900000   19.1610000   23.6700000  
H 23.1690000   22.5910000   22.5780000  
