76
010 
C 16.9960000   11.2750000   25.3090000  
C 17.7570000   10.5830000   24.2600000  
C 17.8870000   11.2230000   23.0640000  
C 17.4400000   12.5410000   22.7690000  
C 16.7270000   13.3310000   23.6950000  
C 16.4460000   12.7960000   25.0470000  
C 18.5310000   10.8550000   21.8800000  
C 18.5200000   11.9200000   20.9320000  
N 17.8480000   12.9610000   21.5150000  
O 19.4500000   10.6680000   19.2530000  
C 19.0730000   11.9460000   19.5810000  
O 19.1270000   12.9210000   18.8680000  
O 15.7660000   13.4880000   25.8400000  
O 16.8660000   10.7100000   26.3950000  
H 18.0700000    9.5520000   24.5360000  
H 19.0420000    9.9510000   21.7260000  
H 19.2590000   10.2030000   20.0950000  
H 17.4860000   13.7530000   21.1150000  
C 16.4090000   14.7350000   23.3090000  
C 15.2600000   15.0840000   22.7060000  
C 15.0300000   16.3430000   22.2000000  
C 15.8710000   17.4510000   22.3930000  
C 17.0420000   17.1130000   23.1220000  
C 17.3250000   15.7810000   23.5430000  
C 14.0900000   14.2980000   22.3930000  
C 13.1830000   15.1910000   21.8210000  
N 13.7390000   16.4920000   21.6550000  
O 11.4050000   13.6530000   21.7550000  
C 11.8290000   14.9240000   21.4830000  
O 11.0300000   15.7720000   21.0550000  
O 17.9840000   18.0830000   23.3680000  
O 18.5220000   15.4650000   24.1660000  
H 13.8040000   13.2600000   22.6940000  
H 12.1660000   13.0040000   21.9030000  
H 13.3060000   17.2810000   21.2170000  
H 17.6320000   18.9620000   22.9400000  
H 19.0790000   16.2710000   24.3860000  
C 15.5600000   18.7780000   21.7110000  
C 14.4500000   19.4890000   22.0660000  
C 14.0700000   20.6510000   21.5300000  
C 14.8640000   21.3450000   20.6510000  
C 15.9340000   20.6210000   20.1080000  
C 16.3100000   19.3230000   20.6240000  
C 13.4160000   19.2640000   23.1030000  
C 12.5130000   20.3250000   23.1900000  
N 12.9400000   21.2010000   22.1880000  
O 11.2240000   19.4510000   24.8980000  
C 11.3290000   20.4600000   24.0110000  
O 10.6340000   21.4200000   24.0390000  
O 16.5050000   21.1240000   18.9130000  
O 17.4420000   18.6730000   20.1850000  
H 13.3210000   18.4090000   23.7440000  
H 11.9820000   18.9080000   24.7750000  
H 12.5450000   22.0440000   21.9350000  
H 16.3130000   22.1080000   18.9100000  
H 17.7290000   18.9660000   19.3190000  
C 14.5090000   22.6390000   19.9880000  
C 15.3320000   23.8040000   20.0870000  
C 14.9630000   25.0170000   19.4660000  
C 13.7960000   25.0620000   18.6780000  
C 13.0380000   23.9030000   18.4510000  
C 13.4190000   22.7290000   19.1040000  
C 16.5660000   24.1280000   20.8450000  
C 16.9670000   25.4510000   20.5080000  
N 15.9240000   25.9930000   19.6570000  
O 18.9890000   25.5320000   21.7040000  
C 18.0660000   26.2080000   21.0210000  
O 18.3730000   27.3350000   20.7540000  
O 11.9490000   24.0220000   17.6810000  
O 12.7320000   21.5520000   18.8750000  
H 17.1080000   23.4550000   21.5180000  
H 18.5370000   24.7520000   21.9240000  
H 15.8930000   26.8940000   19.2900000  
H 11.2720000   23.4020000   17.9690000  
H 13.1610000   20.8810000   19.4350000  
H 13.5580000   25.9810000   18.1160000  
