76
010 
C 17.0250000   10.5360000   22.0250000  
C 15.8210000   10.0100000   22.6220000  
C 14.8180000   10.9370000   22.8110000  
C 14.8410000   12.3010000   22.6110000  
C 16.0010000   12.9640000   22.1840000  
C 17.1510000   12.1420000   21.7500000  
C 13.4800000   10.6670000   23.2850000  
C 12.7710000   11.8520000   23.4460000  
N 13.6730000   12.8510000   23.0670000  
O 10.6950000   10.8930000   24.1660000  
C 11.3240000   11.9870000   23.7270000  
O 10.6490000   12.9820000   23.5470000  
O 18.0960000   12.6540000   21.2460000  
O 17.9180000    9.7560000   21.7120000  
H 15.6830000    8.9600000   22.7150000  
H 13.1430000    9.6540000   23.3690000  
H 11.3070000   10.2560000   23.9260000  
H 13.5200000   13.8460000   23.2610000  
C 15.9350000   14.3730000   21.9610000  
C 16.1290000   15.2170000   23.0460000  
C 16.0920000   16.5770000   22.9130000  
C 15.9190000   17.2320000   21.7080000  
C 15.5910000   16.3530000   20.5850000  
C 15.6940000   15.0010000   20.7250000  
C 16.4760000   14.8750000   24.4370000  
C 16.7060000   16.1060000   25.0520000  
N 16.4760000   17.1370000   24.1260000  
O 17.7470000   15.4510000   27.0780000  
C 17.3990000   16.4970000   26.3520000  
O 17.7110000   17.5960000   26.7160000  
O 15.0820000   16.8320000   19.4500000  
O 15.4160000   14.2320000   19.5870000  
H 16.6630000   13.9190000   24.8830000  
H 17.6130000   14.7130000   26.4870000  
H 16.5980000   18.1320000   24.3170000  
H 15.0280000   17.8050000   19.4870000  
H 15.6200000   14.8100000   18.8680000  
C 15.8620000   18.7300000   21.6550000  
C 16.7540000   19.4030000   20.8130000  
C 16.7040000   20.7790000   20.6830000  
C 15.7270000   21.5910000   21.3160000  
C 14.6890000   20.9590000   21.9980000  
C 14.7490000   19.5590000   22.1790000  
C 17.9570000   19.0010000   20.0740000  
C 18.3960000   20.1770000   19.3750000  
N 17.6460000   21.2910000   19.8420000  
O 20.3280000   19.0870000   18.6320000  
C 19.7310000   20.2880000   18.7010000  
O 20.1310000   21.3220000   18.1780000  
O 13.6530000   21.6060000   22.4840000  
O 13.8520000   19.0080000   22.9240000  
H 18.4490000   18.0300000   20.0970000  
H 19.7760000   18.4410000   19.1180000  
H 17.7350000   22.3100000   19.6080000  
H 13.5850000   22.5790000   22.2940000  
H 13.1130000   19.6420000   23.0500000  
C 15.7010000   23.1110000   21.0900000  
C 14.5940000   23.7540000   20.3820000  
C 14.5740000   25.1350000   20.2490000  
C 15.4700000   25.9590000   20.8770000  
C 16.4400000   25.3380000   21.7310000  
C 16.6560000   23.9770000   21.6860000  
C 13.3640000   23.2690000   19.8160000  
C 12.6500000   24.4460000   19.3950000  
N 13.4550000   25.5810000   19.6170000  
O 10.6680000   23.5120000   18.5420000  
C 11.3250000   24.5970000   18.7800000  
O 10.8950000   25.6960000   18.5300000  
O 17.1280000   26.1880000   22.4820000  
O 17.6630000   23.4220000   22.4770000  
H 13.0790000   22.2210000   19.8110000  
H 11.3410000   22.7910000   18.6340000  
H 13.1050000   26.5410000   19.5980000  
H 17.8020000   25.6440000   22.9000000  
H 17.4810000   22.4510000   22.6010000  
H 15.3390000   27.0860000   20.8440000  
