76
010 
C 15.7090000   10.4820000   21.3620000  
C 14.3600000   10.1780000   21.8540000  
C 13.5580000   11.1300000   22.4050000  
C 13.9090000   12.4970000   22.4170000  
C 15.0650000   12.9630000   21.8900000  
C 16.0180000   12.0070000   21.3360000  
C 12.1980000   11.0750000   22.8790000  
C 11.8040000   12.3770000   23.2820000  
N 12.8950000   13.1940000   23.0460000  
O  9.7230000   11.7290000   24.2260000  
C 10.6140000   12.6890000   23.9810000  
O 10.2580000   13.8360000   24.3030000  
O 17.0740000   12.3880000   20.8350000  
O 16.5190000    9.6360000   20.9570000  
H 14.0320000    9.1480000   21.7250000  
H 11.6550000   10.1370000   23.0340000  
H 10.1850000   10.9000000   23.9700000  
H 12.9020000   14.1860000   23.2850000  
C 15.2640000   14.3790000   21.9020000  
C 16.2410000   14.9600000   22.6640000  
C 16.4190000   16.2880000   22.4840000  
C 15.6630000   17.1570000   21.5930000  
C 14.6740000   16.4940000   20.8050000  
C 14.5390000   15.0960000   20.8920000  
C 17.1830000   14.4610000   23.6530000  
C 18.0430000   15.5060000   23.9450000  
N 17.5370000   16.6460000   23.1950000  
O 19.4140000   14.5750000   25.5720000  
C 19.1890000   15.6320000   24.8200000  
O 19.9200000   16.6400000   24.9240000  
O 13.6080000   17.1420000   20.2370000  
O 13.5890000   14.5070000   20.1480000  
H 17.3700000   13.4100000   23.9710000  
H 18.7080000   13.9660000   25.3110000  
H 17.8060000   17.5890000   23.4240000  
H 13.4910000   18.0350000   20.6840000  
H 13.4300000   15.2060000   19.4260000  
C 15.8240000   18.6680000   21.5380000  
C 16.3540000   19.3120000   20.4170000  
C 16.5080000   20.7050000   20.3660000  
C 16.2770000   21.5920000   21.4650000  
C 15.7680000   20.9220000   22.6200000  
C 15.5320000   19.4890000   22.6080000  
C 16.7960000   18.9070000   19.1180000  
C 17.1790000   20.0030000   18.3760000  
N 16.8880000   21.1670000   19.1510000  
O 17.9790000   18.6300000   16.5270000  
C 17.8180000   19.9280000   16.9690000  
O 18.1730000   20.8680000   16.2120000  
O 15.5380000   21.5830000   23.8220000  
O 15.0140000   18.9190000   23.7370000  
H 16.7660000   17.8720000   18.7140000  
H 17.7550000   18.0590000   17.2630000  
H 17.0410000   22.1080000   18.8510000  
H 15.8540000   22.4810000   23.6970000  
H 15.0750000   19.6750000   24.3230000  
C 16.5410000   23.0150000   21.4090000  
C 15.5230000   23.9350000   21.6530000  
C 15.7700000   25.2920000   21.4750000  
C 17.1080000   25.8260000   21.3180000  
C 18.1580000   24.9050000   21.3790000  
C 17.8540000   23.5520000   21.2800000  
C 14.0650000   23.8480000   21.8970000  
C 13.5040000   25.0990000   21.7630000  
N 14.5810000   25.9850000   21.5740000  
O 11.1250000   24.6300000   21.9240000  
C 12.0820000   25.5970000   21.8060000  
O 11.8050000   26.7830000   21.8680000  
O 19.4310000   25.3830000   21.2870000  
O 18.8520000   22.6620000   21.1300000  
H 13.4550000   23.0340000   22.1720000  
H 11.7020000   23.9210000   22.1950000  
H 14.5030000   26.9660000   21.3870000  
H 20.0170000   24.5940000   21.1650000  
H 18.4660000   21.7750000   21.2810000  
H 17.2270000   26.9320000   21.2470000  
