76
010 
C 19.2020000   14.1560000   27.4430000  
C 18.0820000   14.1750000   28.4330000  
C 16.8920000   14.8190000   28.1030000  
C 16.7100000   15.4860000   26.8460000  
C 17.7350000   15.6180000   25.8810000  
C 18.9450000   14.8030000   26.0370000  
C 15.7050000   15.2240000   28.8340000  
C 14.9420000   16.1570000   28.1470000  
N 15.5650000   16.3350000   26.9320000  
O 13.2890000   16.7040000   29.8110000  
C 13.7570000   16.9390000   28.5780000  
O 13.2020000   17.7030000   27.8500000  
O 19.7360000   14.6920000   25.1180000  
O 20.3110000   13.6710000   27.7290000  
H 18.2410000   13.5820000   29.3460000  
H 15.4920000   14.7880000   29.8260000  
H 13.6910000   15.8680000   30.0920000  
H 15.2880000   16.9750000   26.1750000  
C 17.2710000   16.3010000   24.6660000  
C 17.1300000   17.7220000   24.6060000  
C 16.4960000   18.2940000   23.5300000  
C 16.1910000   17.5870000   22.3210000  
C 16.3540000   16.1810000   22.3940000  
C 16.9710000   15.5830000   23.5020000  
C 17.5000000   18.8060000   25.5000000  
C 16.9650000   19.9720000   24.9400000  
N 16.3490000   19.6940000   23.6940000  
O 17.8550000   21.4580000   26.5910000  
C 17.0190000   21.3370000   25.4980000  
O 16.4280000   22.3340000   25.1250000  
O 16.0370000   15.3730000   21.3650000  
O 17.0690000   14.2400000   23.5530000  
H 17.9640000   18.7160000   26.5330000  
H 18.5140000   20.7360000   26.5540000  
H 15.9290000   20.3040000   23.0940000  
H 15.7430000   16.0070000   20.6500000  
H 16.5810000   13.8520000   22.8180000  
C 15.5580000   18.2330000   21.1090000  
C 16.1420000   18.1390000   19.8180000  
C 15.5050000   18.6230000   18.7080000  
C 14.4460000   19.5960000   18.7060000  
C 13.8690000   19.7970000   19.9930000  
C 14.4580000   19.1260000   21.1870000  
C 17.3690000   17.4820000   19.3960000  
C 17.4690000   17.6560000   18.0280000  
N 16.3180000   18.4080000   17.5930000  
O 19.6240000   16.5980000   17.7810000  
C 18.5150000   17.0840000   17.1820000  
O 18.4260000   17.1160000   15.9510000  
O 12.8240000   20.6760000   20.1860000  
O 13.8390000   19.3500000   22.3600000  
H 18.0020000   16.8870000   20.0260000  
H 19.3920000   16.7730000   18.7380000  
H 16.1940000   18.7500000   16.6440000  
H 12.7820000   21.3310000   19.5030000  
H 13.3380000   20.1270000   22.2330000  
C 14.0530000   20.3730000   17.4650000  
C 12.9340000   19.9570000   16.7770000  
C 12.4870000   20.7890000   15.7950000  
C 13.0790000   22.0330000   15.4790000  
C 14.3090000   22.3260000   16.0220000  
C 14.8470000   21.4740000   17.0110000  
C 11.9560000   18.8890000   16.8890000  
C 10.9420000   19.0670000   15.9270000  
N 11.3230000   20.2650000   15.2320000  
O  9.8480000   16.8970000   16.2010000  
C  9.8270000   18.1330000   15.5380000  
O  8.9530000   18.4070000   14.7230000  
O 14.8780000   23.4970000   15.6760000  
O 16.0100000   21.8570000   17.7060000  
H 11.8660000   18.1970000   17.7250000  
H 10.6310000   16.9840000   16.7810000  
H 10.8120000   20.7390000   14.4370000  
H 15.8840000   23.3330000   15.8860000  
H 16.2590000   21.1230000   18.2710000  
H 12.5600000   22.7130000   14.8220000  
