76
010 
C 19.3640000   15.7010000   27.8120000  
C 18.1920000   15.2030000   28.6660000  
C 16.8570000   15.2620000   28.2310000  
C 16.5460000   15.7510000   26.9850000  
C 17.4590000   16.2940000   26.1050000  
C 18.9260000   16.2560000   26.3880000  
C 15.6600000   14.8700000   28.9160000  
C 14.5800000   15.2290000   28.0570000  
N 15.2010000   15.8330000   26.9480000  
O 12.9350000   14.4630000   29.5160000  
C 13.1360000   15.0580000   28.3600000  
O 12.1980000   15.4520000   27.6970000  
O 19.7560000   16.7210000   25.5970000  
O 20.5170000   15.6960000   28.1480000  
H 18.4230000   14.8480000   29.6860000  
H 15.5780000   14.3760000   29.8930000  
H 13.8160000   14.3320000   29.8480000  
H 14.6390000   16.1030000   26.1440000  
C 16.8380000   16.8230000   24.8780000  
C 16.5220000   18.1770000   24.7690000  
C 16.1000000   18.6980000   23.5610000  
C 15.9760000   17.8940000   22.3410000  
C 16.3130000   16.5640000   22.4700000  
C 16.7890000   16.0170000   23.7430000  
C 16.5150000   19.3040000   25.6780000  
C 16.1280000   20.4160000   24.9650000  
N 15.9090000   20.0420000   23.6250000  
O 16.4750000   22.0460000   26.7180000  
C 16.0510000   21.7690000   25.4580000  
O 15.7060000   22.6670000   24.7040000  
O 15.9640000   15.7390000   21.4100000  
O 17.1740000   14.6650000   23.7450000  
H 16.8710000   19.3340000   26.7720000  
H 17.0800000   21.2900000   26.8810000  
H 15.7280000   20.7260000   22.9400000  
H 15.7820000   16.3410000   20.5930000  
H 17.0480000   14.3110000   22.7980000  
C 15.4620000   18.5700000   21.1060000  
C 16.3110000   18.5940000   20.0120000  
C 15.8510000   19.0190000   18.8590000  
C 14.5780000   19.5650000   18.5790000  
C 13.7020000   19.6940000   19.7020000  
C 14.2110000   19.2270000   20.9920000  
C 17.6590000   18.2280000   19.8860000  
C 17.9740000   18.3930000   18.5200000  
N 16.8450000   18.9450000   17.8990000  
O 20.2660000   17.5810000   18.6420000  
C 19.2880000   18.1510000   17.8370000  
O 19.4830000   18.3930000   16.6690000  
O 12.3950000   20.0260000   19.5890000  
O 13.3340000   19.2340000   22.1080000  
H 18.3160000   17.9600000   20.6810000  
H 19.9350000   17.5200000   19.5720000  
H 16.7330000   19.3100000   16.9860000  
H 12.1960000   20.0840000   18.6340000  
H 12.6620000   19.8470000   21.9020000  
C 14.1570000   20.1210000   17.2640000  
C 13.1770000   19.4460000   16.5240000  
C 12.8830000   19.8180000   15.2830000  
C 13.5190000   20.8810000   14.6880000  
C 14.5560000   21.5310000   15.3570000  
C 14.9040000   21.1250000   16.6490000  
C 12.3800000   18.2410000   16.8240000  
C 11.7020000   17.9810000   15.6790000  
N 11.9100000   19.0230000   14.7150000  
O 10.8910000   15.9670000   16.5590000  
C 10.8430000   16.8190000   15.5330000  
O 10.1500000   16.5780000   14.5280000  
O 15.3080000   22.4650000   14.7130000  
O 15.8760000   21.7810000   17.3880000  
H 12.5020000   17.5370000   17.6420000  
H 11.4110000   16.5200000   17.1900000  
H 11.5600000   18.9540000   13.7260000  
H 16.0540000   22.7420000   15.4000000  
H 15.9240000   21.1400000   18.0860000  
H 13.2320000   21.1500000   13.6880000  
