76
010 
C 10.9170000   21.4060000   26.7600000  
C 10.7550000   20.4030000   27.8130000  
C 11.2060000   19.1280000   27.6570000  
C 12.0210000   18.7530000   26.6510000  
C 12.1870000   19.4690000   25.5090000  
C 11.7140000   20.8540000   25.4890000  
C 11.0580000   17.9730000   28.4850000  
C 11.8230000   16.8640000   27.9770000  
N 12.3110000   17.4500000   26.8170000  
O 11.3530000   15.0550000   29.5110000  
C 12.0590000   15.4430000   28.4230000  
O 12.8060000   14.6590000   27.8790000  
O 11.9480000   21.5230000   24.4960000  
O 10.4740000   22.5360000   26.8510000  
H 10.1920000   20.6800000   28.7260000  
H 10.4700000   17.9220000   29.3690000  
H 10.8850000   15.8820000   29.6730000  
H 12.9320000   17.0230000   26.1280000  
C 13.2670000   18.9530000   24.5200000  
C 12.7830000   18.5290000   23.2260000  
C 13.7150000   18.2090000   22.2560000  
C 15.0950000   18.1950000   22.4610000  
C 15.5630000   18.6390000   23.7180000  
C 14.6520000   19.0290000   24.7220000  
C 11.4470000   18.5120000   22.6170000  
C 11.7020000   18.1090000   21.3100000  
N 13.1350000   18.0540000   21.0690000  
O  9.3540000   18.0500000   20.6690000  
C 10.6660000   17.8190000   20.3260000  
O 11.0090000   17.4300000   19.1960000  
O 16.9270000   18.6680000   23.9520000  
O 15.0810000   19.5740000   25.8470000  
H 10.5350000   18.4400000   23.1450000  
H  9.3660000   18.6160000   21.4650000  
H 13.5440000   17.6710000   20.3150000  
H 17.2610000   18.2820000   23.1360000  
H 16.0410000   19.7680000   25.7880000  
C 16.0220000   17.8810000   21.3220000  
C 16.7040000   18.9990000   20.7570000  
C 17.4310000   18.7660000   19.6240000  
C 17.6600000   17.5400000   19.0160000  
C 16.9620000   16.4360000   19.5930000  
C 16.1580000   16.5720000   20.7620000  
C 16.8180000   20.3800000   21.0850000  
C 17.7850000   20.8920000   20.2100000  
N 18.1120000   19.8580000   19.2820000  
O 17.9670000   23.0660000   21.0620000  
C 18.3800000   22.2570000   20.1100000  
O 19.1880000   22.4790000   19.2210000  
O 17.0060000   15.2080000   19.0520000  
O 15.4680000   15.5070000   21.2810000  
H 16.3660000   20.9150000   21.8530000  
H 17.3960000   22.5430000   21.7000000  
H 18.6930000   19.8510000   18.4600000  
H 17.5990000   15.2210000   18.2670000  
H 15.1160000   14.9940000   20.4940000  
C 18.3880000   17.4940000   17.7480000  
C 19.5490000   16.6930000   17.6500000  
C 20.2430000   16.6320000   16.4380000  
C 19.8070000   17.3120000   15.3220000  
C 18.6750000   18.1220000   15.4440000  
C 17.8840000   18.1670000   16.6540000  
C 20.2360000   15.8350000   18.5180000  
C 21.3380000   15.2340000   17.8180000  
N 21.3430000   15.8010000   16.5320000  
O 21.7080000   13.7290000   19.6110000  
C 22.1680000   14.1850000   18.4000000  
O 23.1870000   13.7630000   17.8820000  
O 18.1800000   18.6870000   14.3100000  
O 16.5900000   18.5550000   16.6230000  
H 20.0980000   15.6850000   19.5900000  
H 20.8070000   14.1060000   19.7360000  
H 22.0520000   15.8070000   15.8340000  
H 17.2450000   18.7930000   14.3760000  
H 16.2110000   18.2930000   17.4590000  
H 20.3440000   17.2890000   14.3970000  
