76
010 
C 13.1060000   20.7670000   28.6150000  
C 13.5640000   19.5930000   29.4710000  
C 14.2390000   18.5920000   28.8560000  
C 14.5070000   18.5620000   27.4900000  
C 14.2020000   19.5560000   26.5860000  
C 13.4180000   20.7190000   27.0250000  
C 14.5730000   17.3180000   29.2510000  
C 15.1880000   16.6210000   28.1900000  
N 15.0850000   17.3950000   27.0170000  
O 15.4150000   14.6470000   29.5190000  
C 15.6650000   15.2210000   28.3470000  
O 16.1210000   14.5810000   27.4400000  
O 12.9810000   21.5900000   26.2820000  
O 12.5740000   21.7270000   29.1530000  
H 13.2090000   19.5560000   30.4600000  
H 14.5100000   17.0140000   30.3070000  
H 15.0640000   15.3970000   29.9590000  
H 15.4260000   17.2320000   26.0130000  
C 14.5820000   19.2980000   25.2140000  
C 13.6590000   18.8410000   24.2550000  
C 14.0560000   18.4270000   23.0520000  
C 15.3770000   18.3740000   22.5980000  
C 16.3750000   19.0170000   23.4370000  
C 15.9470000   19.3920000   24.7220000  
C 12.2250000   18.4560000   24.3300000  
C 11.8800000   17.9370000   23.1280000  
N 13.0200000   17.8750000   22.3220000  
O  9.5510000   17.7350000   23.5870000  
C 10.5340000   17.5960000   22.6550000  
O 10.2820000   17.2930000   21.5120000  
O 17.7050000   19.0520000   23.0820000  
O 16.8860000   19.7840000   25.6150000  
H 11.5610000   18.8090000   25.0910000  
H 10.0780000   17.8580000   24.3850000  
H 13.0470000   17.6350000   21.3630000  
H 17.7130000   18.4910000   22.2700000  
H 17.7600000   19.7430000   25.1920000  
C 15.6840000   17.7980000   21.2720000  
C 15.9730000   18.7590000   20.2820000  
C 15.9370000   18.3790000   18.9160000  
C 15.8620000   17.0440000   18.4570000  
C 15.8490000   16.0160000   19.5180000  
C 15.6270000   16.3820000   20.9040000  
C 16.2420000   20.1790000   20.2650000  
C 16.3610000   20.5340000   18.9260000  
N 16.1680000   19.4560000   18.0860000  
O 16.9410000   22.8200000   19.3080000  
C 16.6380000   21.8700000   18.4080000  
O 16.6810000   22.0970000   17.2610000  
O 15.9070000   14.7340000   19.1610000  
O 15.5780000   15.4380000   21.8370000  
H 16.3390000   20.7270000   21.2130000  
H 16.9510000   22.2860000   20.0780000  
H 16.1310000   19.3840000   17.0760000  
H 16.4080000   14.6220000   18.3320000  
H 15.9600000   14.7220000   21.3310000  
C 16.3100000   16.6140000   17.1250000  
C 17.5880000   16.8340000   16.6560000  
C 17.8610000   16.5740000   15.3560000  
C 17.1000000   15.9000000   14.4800000  
C 15.7790000   15.6190000   14.9210000  
C 15.3670000   16.0390000   16.2350000  
C 18.7130000   17.5620000   17.2650000  
C 19.6080000   17.7810000   16.2150000  
N 19.0860000   17.1070000   15.0570000  
O 21.0540000   19.3060000   17.3740000  
C 20.8630000   18.6110000   16.2340000  
O 21.6370000   18.7280000   15.2400000  
O 14.9050000   15.0740000   13.9860000  
O 14.1070000   15.6680000   16.5290000  
H 18.7070000   18.0930000   18.2710000  
H 20.2920000   19.1690000   17.9740000  
H 19.4760000   17.1700000   14.1030000  
H 14.0070000   15.2450000   14.2710000  
H 13.8800000   15.9520000   17.4590000  
H 17.4600000   15.5820000   13.5400000  
