76
010 
C 12.5890000   11.2400000   20.1050000  
C 12.6660000   10.6370000   21.4330000  
C 12.9390000   11.4070000   22.5180000  
C 13.1870000   12.7670000   22.4070000  
C 13.3110000   13.4230000   21.2110000  
C 13.0310000   12.7140000   19.9210000  
C 13.0370000   10.9850000   23.9110000  
C 13.4090000   12.1730000   24.6030000  
N 13.5510000   13.1790000   23.6670000  
O 13.4590000   11.2100000   26.8010000  
C 13.7250000   12.2900000   26.0610000  
O 14.1950000   13.3770000   26.4940000  
O 13.1470000   13.2800000   18.8540000  
O 12.1630000   10.5750000   19.1810000  
H 12.4630000    9.5240000   21.4400000  
H 13.0680000    9.9290000   24.2520000  
H 12.9990000   10.6260000   26.1530000  
H 13.8550000   14.0670000   23.8530000  
C 13.9010000   14.7820000   21.2010000  
C 15.2370000   14.9560000   21.6020000  
C 15.6990000   16.2470000   21.7480000  
C 15.0180000   17.3970000   21.3350000  
C 13.6410000   17.2240000   20.9210000  
C 13.1000000   15.9270000   20.9650000  
C 16.3010000   14.0540000   22.1710000  
C 17.3460000   14.9690000   22.5510000  
N 16.9690000   16.3040000   22.2820000  
O 18.9620000   13.3410000   23.1350000  
C 18.7480000   14.6290000   23.0650000  
O 19.5740000   15.4680000   23.2770000  
O 12.8040000   18.2470000   20.5570000  
O 11.7270000   15.7970000   20.6830000  
H 16.3170000   13.0010000   22.2910000  
H 18.4110000   12.9070000   22.4710000  
H 17.5830000   17.0810000   22.4480000  
H 13.2970000   19.0560000   20.7960000  
H 11.5080000   16.5340000   20.1090000  
C 15.5970000   18.7070000   21.5120000  
C 16.0110000   19.4510000   20.3700000  
C 16.7350000   20.6300000   20.6560000  
C 17.0550000   21.1770000   21.9360000  
C 16.5590000   20.4290000   22.9910000  
C 15.8120000   19.2300000   22.7960000  
C 15.9080000   19.3110000   18.9790000  
C 16.4190000   20.5140000   18.4530000  
N 17.0430000   21.2700000   19.4440000  
O 15.8430000   19.9810000   16.1940000  
C 16.3700000   20.9170000   17.0210000  
O 16.6790000   22.0430000   16.6610000  
O 16.6420000   20.9110000   24.2270000  
O 15.0390000   18.8270000   23.8850000  
H 15.4760000   18.4490000   18.3990000  
H 15.5000000   19.2530000   16.7350000  
H 17.6030000   22.0990000   19.2960000  
H 17.4580000   21.4790000   24.1710000  
H 15.2360000   19.3940000   24.6760000  
C 17.6820000   22.5010000   22.0170000  
C 16.8380000   23.5920000   22.3260000  
C 17.3200000   24.8570000   22.1040000  
C 18.6840000   25.1140000   21.7690000  
C 19.5170000   23.9960000   21.5210000  
C 19.0920000   22.6960000   21.7260000  
C 15.4170000   23.7130000   22.5340000  
C 15.1580000   25.0540000   22.3510000  
N 16.3190000   25.7960000   22.2590000  
O 12.8000000   24.9360000   22.2870000  
C 13.8290000   25.7320000   22.3180000  
O 13.6760000   26.9500000   22.4300000  
O 20.7670000   24.2410000   21.1230000  
O 19.9940000   21.6620000   21.5690000  
H 14.6720000   22.8750000   22.6370000  
H 13.2380000   24.1780000   22.5390000  
H 16.5330000   26.7660000   22.3430000  
H 21.3030000   23.4020000   21.0540000  
H 19.5990000   20.8670000   21.9870000  
H 19.0580000   26.0870000   21.6750000  
