76
010 
C 15.0710000   18.7730000   29.4660000  
C 13.6050000   18.5880000   29.6770000  
C 12.8320000   18.4690000   28.5960000  
C 13.2570000   18.3850000   27.2630000  
C 14.6060000   18.4250000   26.8860000  
C 15.5890000   18.6130000   27.9790000  
C 11.3990000   18.3160000   28.4470000  
C 11.0400000   18.0660000   27.1000000  
N 12.2450000   18.1410000   26.4230000  
O  8.6980000   17.7010000   27.5600000  
C  9.6830000   17.7820000   26.5450000  
O  9.4430000   17.7240000   25.3250000  
O 16.7840000   18.7120000   27.8420000  
O 15.7980000   19.0280000   30.4250000  
H 13.2080000   18.5510000   30.6960000  
H 10.6950000   18.3330000   29.3480000  
H  9.0110000   18.1710000   28.3310000  
H 12.3260000   17.8890000   25.4470000  
C 14.8940000   18.2560000   25.4580000  
C 14.8360000   19.3160000   24.5560000  
C 15.1510000   19.1940000   23.2510000  
C 15.5350000   17.9630000   22.6410000  
C 15.4570000   16.7430000   23.4920000  
C 15.0570000   16.9390000   24.8830000  
C 14.5710000   20.7810000   24.7450000  
C 14.5760000   21.3340000   23.5040000  
N 14.9660000   20.3790000   22.5690000  
O 13.6810000   23.3890000   24.1600000  
C 14.2880000   22.7070000   23.1460000  
O 14.4580000   23.1810000   22.0550000  
O 15.6910000   15.4870000   23.0280000  
O 14.7800000   15.9290000   25.6330000  
H 14.5250000   21.3310000   25.6920000  
H 13.5960000   22.7280000   24.8890000  
H 15.0830000   20.5490000   21.5790000  
H 15.4540000   15.5110000   22.0760000  
H 14.6630000   15.1480000   25.0640000  
C 15.7790000   17.9220000   21.1670000  
C 17.0240000   18.3490000   20.6010000  
C 17.3110000   18.2340000   19.3020000  
C 16.4710000   17.6480000   18.3120000  
C 15.2970000   17.0880000   18.8880000  
C 14.9260000   17.3140000   20.1900000  
C 18.1890000   18.9250000   21.2900000  
C 18.9470000   19.3410000   20.2560000  
N 18.4850000   18.8430000   19.0600000  
O 20.5320000   20.3930000   21.5940000  
C 20.2720000   20.1020000   20.3370000  
O 20.9590000   20.5390000   19.4170000  
O 14.3880000   16.4600000   18.0310000  
O 13.7950000   16.7060000   20.5500000  
H 18.3520000   18.9500000   22.3900000  
H 19.7460000   20.1450000   22.1710000  
H 19.0280000   18.8050000   18.1750000  
H 14.6850000   16.4620000   17.0900000  
H 13.6140000   15.9810000   19.8630000  
C 16.7320000   17.6680000   16.8960000  
C 16.7440000   16.4930000   16.0660000  
C 17.1110000   16.4900000   14.7480000  
C 17.4600000   17.7140000   14.1400000  
C 17.3860000   18.9240000   14.8050000  
C 16.9760000   18.8810000   16.1730000  
C 16.5830000   15.0920000   16.4500000  
C 16.8790000   14.2950000   15.3760000  
N 17.2540000   15.1490000   14.3510000  
O 16.5110000   12.2540000   16.4850000  
C 16.8990000   12.8320000   15.3320000  
O 17.3630000   12.2510000   14.3860000  
O 17.7570000   20.1400000   14.2170000  
O 17.0270000   20.1050000   16.9000000  
H 16.2500000   14.7090000   17.4000000  
H 16.0850000   12.9650000   17.0030000  
H 17.6930000   14.7600000   13.5120000  
H 17.8490000   20.8870000   14.9410000  
H 17.0740000   19.8730000   17.8590000  
H 17.7020000   17.6890000   13.0470000  
