76
010 
C 18.9320000   14.2930000   27.2900000  
C 19.5650000   13.2180000   26.5930000  
C 19.1510000   12.9420000   25.3500000  
C 18.2180000   13.6970000   24.6460000  
C 17.7450000   14.9190000   25.0030000  
C 18.0430000   15.3640000   26.3690000  
C 19.3960000   11.8080000   24.4880000  
C 18.6310000   11.8950000   23.3230000  
N 17.9410000   13.1190000   23.4340000  
O 19.4260000    9.8480000   22.4020000  
C 18.5730000   10.9180000   22.1990000  
O 17.9050000   11.0950000   21.1600000  
O 17.4670000   16.3020000   26.8930000  
O 19.2980000   14.5010000   28.4470000  
H 20.2160000   12.5210000   27.1590000  
H 20.0740000   10.9750000   24.7980000  
H 19.9850000   10.1560000   23.1150000  
H 17.3450000   13.4800000   22.6780000  
C 17.0570000   15.7210000   23.9510000  
C 15.7110000   16.0070000   24.0490000  
C 15.0290000   16.8200000   23.2140000  
C 15.5730000   17.4410000   22.0710000  
C 17.0200000   17.2330000   21.9710000  
C 17.6500000   16.2520000   22.7890000  
C 14.8260000   15.6280000   25.1420000  
C 13.5660000   16.2730000   24.8430000  
N 13.7640000   17.0850000   23.6750000  
O 12.4380000   15.1350000   26.6720000  
C 12.3550000   16.0430000   25.6390000  
O 11.3320000   16.6710000   25.4430000  
O 17.7330000   17.8700000   21.0160000  
O 18.9030000   15.8790000   22.5760000  
H 14.9930000   14.8450000   25.8620000  
H 13.3640000   14.8830000   26.6120000  
H 13.0690000   17.6470000   23.2780000  
H 17.1000000   18.4680000   20.6460000  
H 19.1970000   16.4060000   21.7760000  
C 14.8350000   18.4350000   21.2120000  
C 14.4960000   19.6980000   21.7610000  
C 13.9910000   20.6450000   20.9330000  
C 13.7700000   20.4430000   19.5620000  
C 14.0580000   19.1760000   19.0310000  
C 14.5440000   18.1550000   19.8460000  
C 14.8120000   20.3610000   23.0370000  
C 14.3690000   21.6850000   22.8950000  
N 13.8700000   21.8520000   21.6060000  
O 15.0430000   22.4450000   25.1380000  
C 14.6770000   22.8160000   23.8870000  
O 14.4150000   24.0070000   23.6750000  
O 13.8130000   18.9880000   17.6910000  
O 14.7380000   16.9200000   19.2930000  
H 15.0440000   19.8810000   23.9720000  
H 14.9300000   21.5280000   25.3690000  
H 13.4110000   22.6750000   21.2880000  
H 13.2840000   19.7160000   17.4030000  
H 14.1910000   16.7060000   18.5030000  
C 13.2670000   21.5460000   18.6370000  
C 14.0210000   22.0360000   17.5540000  
C 13.4510000   22.8830000   16.6120000  
C 12.1900000   23.5630000   16.7740000  
C 11.4610000   23.1570000   17.9520000  
C 11.9830000   22.1350000   18.8010000  
C 15.2530000   21.6620000   17.0210000  
C 15.5000000   22.3030000   15.8170000  
N 14.3700000   23.1560000   15.6180000  
O 17.8020000   21.4720000   15.5580000  
C 16.8040000   22.2860000   15.0700000  
O 16.9770000   22.8310000   13.9480000  
O 10.1910000   23.5730000   18.1310000  
O 11.2060000   21.6980000   19.8660000  
H 15.9340000   20.8880000   17.4500000  
H 17.6050000   21.1050000   16.4420000  
H 14.3780000   23.8070000   14.9150000  
H  9.7110000   22.9650000   18.7660000  
H 11.5800000   20.9070000   20.2490000  
H 11.8680000   24.3320000   16.1180000  
