76
010 
C 14.2750000   10.6410000   20.3370000  
C 13.3820000   10.3160000   21.5010000  
C 12.9660000   11.3010000   22.3690000  
C 13.4420000   12.6200000   22.2440000  
C 14.3450000   13.0520000   21.2800000  
C 14.8490000   12.0940000   20.2800000  
C 12.2330000   11.2810000   23.6260000  
C 12.2330000   12.5850000   24.1080000  
N 12.9720000   13.3410000   23.2460000  
O 11.1730000   12.2910000   26.3090000  
C 11.8250000   13.0620000   25.4400000  
O 12.1110000   14.2270000   25.7800000  
O 15.5160000   12.4310000   19.2960000  
O 14.6940000    9.7640000   19.5570000  
H 13.1320000    9.2430000   21.5900000  
H 11.7190000   10.3760000   24.0300000  
H 11.0320000   11.3710000   25.8550000  
H 13.2380000   14.3060000   23.3280000  
C 14.7840000   14.4310000   21.3380000  
C 16.0260000   14.8280000   21.9320000  
C 16.4150000   16.1460000   22.0230000  
C 15.7770000   17.1910000   21.3860000  
C 14.5070000   16.7890000   20.8550000  
C 13.9960000   15.4900000   20.8680000  
C 17.0160000   14.0300000   22.6920000  
C 17.8340000   14.9470000   23.3540000  
N 17.5310000   16.2150000   22.8470000  
O 19.0430000   13.3190000   24.4750000  
C 18.8820000   14.6380000   24.2810000  
O 19.4590000   15.4760000   24.8820000  
O 13.7210000   17.7190000   20.2920000  
O 12.6970000   15.3350000   20.4190000  
H 16.9380000   12.9660000   22.8320000  
H 18.6290000   12.8550000   23.7440000  
H 18.0700000   17.0600000   22.9190000  
H 14.1430000   18.5930000   20.5360000  
H 12.5360000   16.1160000   19.8120000  
C 16.0520000   18.6810000   21.5320000  
C 16.4390000   19.3620000   20.4040000  
C 16.7830000   20.6630000   20.4130000  
C 16.6170000   21.4970000   21.5270000  
C 16.1960000   20.9030000   22.6880000  
C 15.8980000   19.5130000   22.6850000  
C 16.4830000   18.9900000   18.9990000  
C 16.9490000   20.0420000   18.2440000  
N 17.0390000   21.1200000   19.1570000  
O 16.8170000   18.9980000   16.0500000  
C 17.1620000   20.1090000   16.7980000  
O 17.6400000   21.0770000   16.2460000  
O 15.9340000   21.5600000   23.8650000  
O 15.2670000   19.0730000   23.8350000  
H 16.1650000   18.0080000   18.5940000  
H 16.5540000   18.3840000   16.7530000  
H 17.1450000   22.0920000   18.9200000  
H 16.1450000   22.4750000   23.5940000  
H 15.4450000   19.7080000   24.5860000  
C 16.9210000   22.9770000   21.4440000  
C 16.0000000   23.9790000   21.9370000  
C 16.3160000   25.3090000   21.9170000  
C 17.6440000   25.7040000   21.6100000  
C 18.5410000   24.7390000   21.1540000  
C 18.2190000   23.4120000   21.0980000  
C 14.6180000   23.8790000   22.2610000  
C 14.1650000   25.1830000   22.4670000  
N 15.2230000   26.0550000   22.3790000  
O 11.9780000   24.5610000   22.5120000  
C 12.8210000   25.5710000   22.7450000  
O 12.4720000   26.7020000   23.0980000  
O 19.7650000   25.1470000   20.8070000  
O 19.2100000   22.4610000   20.9700000  
H 14.0830000   22.8970000   22.2380000  
H 12.4620000   23.7620000   22.5330000  
H 15.1180000   27.0530000   22.5430000  
H 20.3940000   24.4180000   21.0420000  
H 18.8290000   21.6350000   21.1750000  
H 17.9510000   26.7330000   21.7060000  
