76
010 
C  9.4960000   14.0580000   24.5160000  
C  9.2270000   13.1070000   23.3870000  
C 10.0640000   13.0980000   22.3480000  
C 11.2740000   13.8580000   22.2560000  
C 11.6480000   14.7790000   23.2220000  
C 10.7640000   15.0710000   24.3610000  
C 10.0210000   12.3150000   21.1520000  
C 11.2160000   12.5250000   20.4310000  
N 11.9670000   13.5140000   21.1530000  
O 10.6640000   11.1190000   18.5900000  
C 11.6640000   11.8280000   19.1870000  
O 12.8190000   11.9080000   18.7270000  
O 10.9780000   15.9060000   25.2120000  
O  8.7730000   14.1280000   25.4870000  
H  8.2820000   12.5500000   23.2800000  
H  9.2230000   11.6070000   21.0000000  
H  9.8270000   11.1410000   19.0230000  
H 12.7740000   14.0330000   20.8610000  
C 12.8620000   15.6110000   22.8440000  
C 12.6930000   16.8060000   22.1270000  
C 13.8160000   17.5300000   21.7290000  
C 15.1690000   17.2030000   22.1300000  
C 15.3340000   16.0500000   22.9390000  
C 14.2160000   15.2490000   23.2290000  
C 11.5360000   17.5120000   21.5190000  
C 12.0780000   18.5760000   20.7360000  
N 13.4690000   18.5570000   20.8920000  
O  9.8770000   18.9730000   19.8940000  
C 11.2140000   19.3410000   19.8180000  
O 11.6100000   20.1470000   19.0010000  
O 16.6240000   15.5920000   23.1650000  
O 14.4210000   14.1660000   24.0600000  
H 10.5360000   17.0870000   21.4960000  
H  9.9980000   18.3310000   20.5950000  
H 14.1440000   19.1730000   20.4420000  
H 17.1700000   16.2520000   22.6990000  
H 15.3930000   14.1380000   24.0940000  
C 16.2870000   18.0650000   21.7160000  
C 16.3750000   19.3910000   22.1490000  
C 17.3940000   20.2110000   21.5910000  
C 18.4210000   19.7590000   20.7700000  
C 18.3690000   18.4470000   20.4100000  
C 17.3400000   17.5710000   20.8210000  
C 15.6990000   20.2500000   23.1140000  
C 16.3860000   21.4980000   23.0540000  
N 17.3820000   21.4790000   22.1230000  
O 15.2750000   22.5700000   24.8580000  
C 16.1370000   22.7730000   23.8380000  
O 16.7760000   23.7750000   23.6340000  
O 19.4100000   17.9230000   19.7190000  
O 17.3420000   16.2720000   20.3670000  
H 14.8010000   20.0230000   23.7360000  
H 14.9590000   21.6910000   24.6440000  
H 18.0290000   22.2190000   21.9800000  
H 19.7100000   18.4400000   18.9520000  
H 18.0350000   16.2740000   19.7130000  
C 19.4720000   20.6830000   20.2700000  
C 20.4810000   21.2010000   21.1380000  
C 21.2630000   22.2210000   20.7010000  
C 21.3400000   22.6610000   19.3840000  
C 20.5280000   22.0820000   18.4630000  
C 19.6160000   21.0610000   18.9050000  
C 20.8510000   20.9160000   22.4230000  
C 21.6610000   21.9340000   22.8540000  
N 21.9510000   22.7370000   21.7500000  
O 21.7830000   21.4520000   25.1910000  
C 22.1210000   22.2750000   24.2560000  
O 22.9200000   23.1560000   24.5600000  
O 20.6430000   22.4180000   17.1450000  
O 18.7710000   20.3460000   18.0710000  
H 20.4420000   20.1510000   23.0780000  
H 21.1600000   20.8840000   24.7460000  
H 22.7510000   23.3170000   21.6920000  
H 20.0420000   21.8720000   16.6870000  
H 18.1830000   19.8010000   18.6140000  
H 22.0980000   23.3650000   19.0980000  
