76
010 
C  9.7990000   14.3270000   24.6780000  
C  9.5970000   13.1380000   23.8640000  
C 10.3550000   12.9590000   22.7660000  
C 11.2490000   13.9020000   22.2890000  
C 11.5760000   15.0700000   22.9410000  
C 10.8520000   15.4280000   24.1960000  
C 10.3600000   11.9860000   21.7250000  
C 11.1560000   12.3800000   20.6770000  
N 11.7910000   13.4770000   21.1580000  
O 10.6170000   10.6380000   19.0830000  
C 11.2930000   11.7890000   19.3550000  
O 11.9660000   12.2880000   18.4770000  
O 11.0850000   16.2830000   24.9600000  
O  9.1070000   14.4420000   25.6970000  
H  8.9680000   12.3070000   24.1690000  
H  9.6750000   11.1080000   21.6710000  
H 10.2070000   10.2620000   19.8610000  
H 12.3520000   14.0710000   20.5890000  
C 12.7320000   15.8290000   22.4120000  
C 12.5220000   17.1910000   22.0750000  
C 13.6300000   18.0030000   21.7910000  
C 14.9610000   17.5330000   21.6610000  
C 15.1680000   16.1590000   21.9530000  
C 14.0990000   15.3400000   22.4280000  
C 11.3940000   18.1540000   22.1640000  
C 11.8420000   19.4090000   21.7430000  
N 13.2460000   19.3260000   21.5900000  
O  9.5960000   20.3660000   21.5410000  
C 10.9180000   20.5740000   21.4470000  
O 11.2850000   21.6740000   21.0390000  
O 16.4570000   15.6840000   21.7730000  
O 14.4180000   14.0430000   22.6800000  
H 10.4200000   18.0360000   22.5810000  
H  9.5390000   19.5000000   21.7720000  
H 13.9090000   20.0930000   21.3700000  
H 17.0600000   16.4310000   21.6510000  
H 15.3950000   13.9710000   22.6090000  
C 16.0620000   18.3950000   21.2170000  
C 16.4480000   19.4920000   22.0590000  
C 17.3470000   20.4060000   21.6230000  
C 18.1530000   20.2060000   20.4730000  
C 17.8440000   19.0690000   19.6630000  
C 16.7650000   18.2000000   20.0110000  
C 15.9470000   19.9680000   23.3110000  
C 16.6780000   21.1040000   23.6580000  
N 17.6750000   21.3360000   22.6620000  
O 15.7640000   21.4610000   25.8700000  
C 16.6820000   21.8580000   24.9260000  
O 17.5340000   22.6780000   25.1930000  
O 18.6980000   18.7140000   18.6910000  
O 16.5350000   17.1560000   19.1220000  
H 15.1770000   19.3910000   23.9020000  
H 15.1620000   20.8840000   25.4040000  
H 18.3920000   22.0420000   22.6270000  
H 19.5410000   19.1870000   18.8150000  
H 17.1790000   17.1900000   18.3740000  
C 19.3050000   21.0370000   20.0620000  
C 20.4410000   21.0730000   20.9130000  
C 21.5510000   21.7660000   20.5710000  
C 21.7290000   22.3820000   19.3330000  
C 20.6720000   22.2020000   18.4080000  
C 19.4470000   21.6610000   18.8380000  
C 20.7020000   20.3790000   22.1380000  
C 22.0090000   20.7290000   22.4440000  
N 22.4930000   21.6590000   21.5580000  
O 22.1600000   19.0870000   24.1730000  
C 22.8470000   19.9570000   23.3780000  
O 24.0090000   20.1250000   23.6070000  
O 20.6270000   22.8950000   17.2390000  
O 18.3520000   21.6130000   17.9910000  
H 20.0260000   19.6600000   22.5790000  
H 21.1900000   19.2270000   23.9750000  
H 23.4640000   21.9860000   21.4200000  
H 20.0700000   22.4190000   16.6410000  
H 17.5580000   21.2210000   18.4300000  
H 22.6320000   22.9460000   19.1180000  
