76
010 
C  8.4620000   15.1650000   23.7650000  
C  7.8440000   16.4610000   23.7930000  
C  8.6070000   17.5900000   23.6470000  
C  9.9310000   17.5510000   23.1830000  
C 10.6780000   16.4620000   23.0670000  
C 10.0580000   15.1600000   23.4040000  
C  8.2290000   18.9340000   23.6570000  
C  9.4090000   19.7140000   23.2840000  
N 10.4230000   18.8210000   23.0060000  
O  8.5640000   21.9530000   23.9500000  
C  9.5700000   21.1970000   23.5040000  
O 10.6140000   21.7150000   23.2300000  
O 10.6440000   14.0920000   23.4180000  
O  7.8970000   14.1130000   24.0270000  
H  6.7900000   16.4340000   24.0480000  
H  7.2680000   19.3910000   23.8640000  
H  7.7460000   21.4210000   24.2050000  
H 11.4030000   18.9630000   22.8840000  
C 12.0520000   16.7090000   22.6650000  
C 13.0370000   16.9800000   23.5950000  
C 14.2270000   17.4380000   23.1870000  
C 14.6210000   17.7060000   21.8820000  
C 13.6220000   17.3680000   20.8640000  
C 12.3380000   16.8980000   21.2830000  
C 13.0210000   16.8970000   24.9820000  
C 14.2600000   17.2200000   25.4090000  
N 15.0860000   17.5550000   24.2980000  
O 13.7340000   17.2080000   27.7310000  
C 14.6720000   17.3680000   26.7590000  
O 15.7470000   17.8580000   26.9190000  
O 14.0130000   17.4470000   19.5450000  
O 11.4210000   16.5270000   20.3530000  
H 12.0760000   16.6190000   25.5650000  
H 12.9840000   16.8850000   27.2850000  
H 16.0310000   17.8690000   24.2590000  
H 14.8950000   17.9220000   19.4880000  
H 11.9450000   16.5180000   19.5020000  
C 15.9950000   18.1370000   21.4880000  
C 17.1320000   17.4410000   21.7570000  
C 18.3230000   17.9430000   21.3970000  
C 18.6020000   19.1160000   20.6280000  
C 17.4100000   19.8280000   20.2630000  
C 16.1380000   19.3730000   20.7250000  
C 17.3970000   16.1380000   22.3830000  
C 18.7640000   15.8650000   22.1270000  
N 19.2970000   17.0040000   21.5180000  
O 18.8690000   13.6950000   23.1270000  
C 19.5370000   14.6310000   22.4010000  
O 20.6980000   14.5550000   21.9880000  
O 17.6750000   20.9740000   19.6790000  
O 14.9890000   20.1100000   20.4350000  
H 16.7290000   15.3500000   22.8180000  
H 17.9520000   13.9860000   23.1220000  
H 20.2760000   17.2260000   21.2100000  
H 18.6360000   20.9580000   19.4490000  
H 15.1840000   21.0660000   20.4060000  
C 19.9660000   19.5730000   20.1910000  
C 20.3730000   19.6840000   18.8430000  
C 21.5920000   20.2280000   18.4890000  
C 22.5840000   20.5000000   19.4430000  
C 22.2760000   20.2030000   20.7740000  
C 21.0210000   19.8840000   21.1410000  
C 19.6290000   19.5370000   17.6270000  
C 20.4740000   19.8330000   16.5270000  
N 21.6540000   20.2900000   17.1110000  
O 18.9370000   19.3230000   14.9830000  
C 20.1770000   19.7310000   15.0890000  
O 20.9320000   19.9100000   14.1380000  
O 23.2670000   20.3860000   21.7220000  
O 20.8260000   19.5600000   22.4660000  
H 18.5890000   19.1600000   17.6020000  
H 18.5600000   19.4060000   15.8370000  
H 22.3950000   20.7120000   16.6340000  
H 22.8730000   20.2870000   22.6180000  
H 19.8810000   19.3470000   22.5320000  
H 23.5100000   20.7730000   19.0510000  
