76
010 
C 14.0410000   15.9560000   28.8660000  
C 14.6000000   17.1200000   29.5880000  
C 15.1390000   18.2300000   28.9260000  
C 15.2440000   18.2720000   27.5600000  
C 14.9040000   17.2410000   26.7610000  
C 14.3030000   15.9750000   27.3140000  
C 15.6310000   19.4350000   29.4400000  
C 16.1340000   20.1330000   28.3570000  
N 15.9140000   19.3530000   27.2060000  
O 17.1320000   21.8470000   29.7800000  
C 16.9350000   21.4510000   28.5080000  
O 17.3790000   22.1240000   27.5720000  
O 13.9940000   15.0220000   26.5970000  
O 13.5060000   15.0060000   29.3990000  
H 14.4760000   16.9400000   30.6770000  
H 15.8380000   19.5590000   30.5330000  
H 16.6150000   21.2240000   30.3330000  
H 16.2820000   19.5480000   26.2700000  
C 15.1080000   17.4590000   25.3220000  
C 16.3140000   17.1090000   24.6240000  
C 16.4140000   17.4620000   23.3270000  
C 15.4490000   18.2190000   22.6790000  
C 14.2550000   18.5200000   23.3620000  
C 14.0370000   18.1010000   24.6910000  
C 17.5760000   16.5760000   25.0080000  
C 18.3730000   16.5920000   23.8320000  
N 17.6760000   17.3260000   22.8680000  
O 20.3910000   15.6110000   24.7290000  
C 19.8140000   16.1770000   23.6490000  
O 20.5090000   16.2760000   22.6440000  
O 13.2990000   19.2480000   22.7260000  
O 12.8560000   18.3790000   25.2340000  
H 17.8770000   16.1970000   26.0340000  
H 19.7590000   15.5620000   25.4700000  
H 18.0670000   17.3960000   21.9040000  
H 13.7320000   19.5010000   21.8840000  
H 12.3530000   18.9460000   24.5840000  
C 15.6040000   18.5570000   21.2680000  
C 15.4110000   17.4940000   20.3000000  
C 15.5070000   17.7860000   18.9250000  
C 15.7940000   19.0440000   18.3530000  
C 15.9110000   20.0880000   19.3260000  
C 15.9350000   19.8470000   20.7470000  
C 15.2640000   16.0820000   20.3320000  
C 15.1710000   15.6420000   19.0330000  
N 15.3130000   16.6520000   18.1910000  
O 14.4760000   13.4090000   19.6570000  
C 14.8080000   14.2330000   18.6330000  
O 14.7970000   13.8710000   17.4450000  
O 16.2950000   21.3490000   18.8550000  
O 16.1280000   20.8810000   21.6070000  
H 15.2510000   15.4600000   21.1830000  
H 14.7720000   13.8930000   20.4200000  
H 15.0970000   16.7040000   17.1460000  
H 16.9960000   21.2030000   18.1070000  
H 16.2980000   21.7310000   21.1310000  
C 15.7870000   19.3660000   16.8890000  
C 14.7010000   19.2460000   16.0570000  
C 14.7910000   19.5920000   14.7430000  
C 15.9940000   20.0750000   14.1850000  
C 17.0810000   20.2060000   15.0380000  
C 17.0710000   19.7980000   16.4170000  
C 13.3830000   18.6860000   16.3320000  
C 12.7480000   18.5950000   15.0440000  
N 13.6000000   19.2250000   14.1000000  
O 10.7070000   17.4790000   15.7750000  
C 11.4000000   18.0380000   14.7290000  
O 11.0140000   17.9030000   13.6110000  
O 18.2450000   20.7530000   14.5600000  
O 18.2210000   19.8340000   17.1640000  
H 13.0110000   18.3310000   17.2620000  
H 11.2000000   17.5470000   16.5670000  
H 13.3700000   19.3280000   13.0750000  
H 18.8520000   20.8260000   15.2280000  
H 18.0510000   19.1090000   17.7980000  
H 16.0320000   20.5130000   13.1670000  
