76
010 
C 15.7270000   17.3050000   29.1190000  
C 14.4430000   17.8140000   29.7050000  
C 13.3910000   18.3080000   28.9550000  
C 13.3960000   18.2380000   27.5690000  
C 14.5280000   17.8080000   26.7630000  
C 15.6610000   17.2440000   27.4760000  
C 12.1700000   18.8610000   29.3120000  
C 11.5140000   19.2760000   28.1810000  
N 12.2340000   18.8260000   27.0750000  
O  9.5230000   20.2260000   29.2070000  
C 10.1900000   19.9740000   28.1080000  
O  9.6810000   20.2190000   27.0440000  
O 16.6560000   16.8320000   26.8310000  
O 16.7290000   17.1640000   29.7920000  
H 14.4370000   17.8500000   30.7380000  
H 11.8390000   19.0190000   30.3820000  
H 10.0770000   19.7080000   29.8450000  
H 12.0910000   19.0070000   26.1150000  
C 14.5330000   18.0110000   25.2930000  
C 15.5190000   18.7560000   24.6850000  
C 15.7180000   18.7720000   23.3340000  
C 14.9150000   18.0620000   22.3990000  
C 13.9580000   17.1570000   23.0370000  
C 13.7500000   17.1410000   24.4890000  
C 16.4130000   19.6480000   25.2670000  
C 17.1550000   20.2420000   24.2390000  
N 16.6770000   19.7400000   22.9930000  
O 18.6460000   21.5300000   25.6640000  
C 18.2120000   21.2830000   24.3900000  
O 18.7280000   21.8750000   23.3960000  
O 13.2440000   16.3350000   22.2270000  
O 12.7930000   16.3150000   25.0400000  
H 16.3350000   20.0460000   26.2850000  
H 18.0390000   21.0360000   26.1780000  
H 16.9920000   20.0280000   22.0430000  
H 13.4780000   16.5410000   21.3180000  
H 12.4100000   15.8950000   24.3090000  
C 15.1110000   18.2260000   20.9500000  
C 16.3510000   17.8650000   20.3520000  
C 16.5580000   17.8920000   19.0010000  
C 15.6310000   18.3790000   18.0570000  
C 14.3560000   18.7940000   18.6110000  
C 14.0780000   18.6190000   19.9990000  
C 17.6080000   17.5150000   20.9030000  
C 18.4670000   17.3040000   19.8720000  
N 17.7870000   17.4590000   18.6410000  
O 20.3860000   17.0700000   21.2480000  
C 19.9590000   17.2050000   19.9850000  
O 20.7060000   17.2150000   19.0400000  
O 13.2820000   19.0300000   17.7280000  
O 12.7770000   18.8100000   20.3810000  
H 17.8790000   17.7710000   21.9610000  
H 19.6050000   17.3620000   21.7710000  
H 18.1570000   17.3500000   17.7080000  
H 13.5860000   18.8360000   16.8560000  
H 12.1250000   18.7890000   19.6100000  
C 15.9570000   18.4630000   16.5670000  
C 16.2510000   17.2680000   15.8670000  
C 16.5370000   17.3450000   14.5140000  
C 16.5600000   18.5540000   13.7700000  
C 16.2320000   19.7380000   14.4230000  
C 16.0010000   19.7210000   15.8310000  
C 16.3610000   15.8690000   16.1950000  
C 16.6750000   15.1340000   15.0490000  
N 16.8380000   16.0400000   13.9880000  
O 16.4800000   13.0400000   16.1640000  
C 16.8250000   13.6350000   15.0180000  
O 17.1450000   13.0140000   14.0540000  
O 15.9910000   20.8180000   13.6750000  
O 15.8290000   20.9240000   16.3970000  
H 16.0530000   15.5030000   17.1510000  
H 16.0610000   13.7390000   16.6720000  
H 16.9590000   15.9220000   12.9530000  
H 15.5330000   21.4920000   14.1340000  
H 15.8160000   20.9050000   17.3920000  
H 16.7390000   18.5570000   12.7390000  
