76
010 
C 18.5410000   13.1070000   26.5200000  
C 17.9850000   13.4210000   27.8600000  
C 17.1230000   14.5060000   28.0130000  
C 16.8350000   15.3010000   26.9090000  
C 17.3590000   15.2240000   25.6480000  
C 18.2220000   14.0810000   25.3290000  
C 16.3510000   14.9390000   29.1570000  
C 15.6080000   16.0310000   28.7460000  
N 15.9710000   16.2880000   27.3650000  
O 14.9060000   16.4660000   30.9290000  
C 14.8260000   16.8900000   29.6420000  
O 13.9960000   17.7170000   29.2440000  
O 18.7100000   13.8440000   24.2640000  
O 19.0970000   12.0120000   26.3150000  
H 18.2810000   12.7240000   28.6590000  
H 16.3910000   14.4930000   30.1670000  
H 15.4640000   15.6730000   30.8490000  
H 15.6860000   17.0540000   26.8330000  
C 16.7940000   16.1460000   24.6110000  
C 17.2230000   17.4480000   24.3150000  
C 16.7150000   18.1100000   23.2620000  
C 15.7880000   17.6980000   22.3330000  
C 15.3530000   16.3510000   22.5920000  
C 15.8510000   15.6040000   23.7320000  
C 18.2270000   18.2920000   24.9010000  
C 18.2370000   19.4410000   24.1750000  
N 17.2770000   19.3740000   23.1600000  
O 19.8440000   20.3960000   25.5580000  
C 19.1180000   20.6120000   24.4500000  
O 19.1910000   21.4990000   23.6660000  
O 14.4930000   15.7850000   21.7730000  
O 15.4580000   14.2620000   23.8530000  
H 18.8890000   18.1010000   25.7410000  
H 19.3580000   19.6100000   25.8890000  
H 17.0630000   20.0640000   22.4240000  
H 14.2040000   16.4850000   21.2140000  
H 14.9100000   14.0560000   23.1290000  
C 15.2860000   18.5990000   21.1900000  
C 15.7880000   18.3730000   19.8970000  
C 15.5030000   19.0880000   18.7540000  
C 14.4080000   19.9990000   18.8530000  
C 13.7750000   20.1970000   20.1070000  
C 14.1780000   19.4960000   21.2370000  
C 16.8230000   17.5200000   19.4520000  
C 17.1640000   17.7880000   18.1390000  
N 16.3090000   18.7850000   17.6870000  
O 18.9150000   16.1110000   17.9110000  
C 18.2370000   17.1580000   17.3120000  
O 18.3970000   17.4460000   16.1420000  
O 12.7090000   21.0520000   20.2140000  
O 13.6250000   19.7230000   22.4670000  
H 17.1990000   16.7180000   20.0660000  
H 18.6370000   16.0680000   18.8290000  
H 16.2860000   19.0660000   16.7280000  
H 12.5040000   21.4260000   19.3290000  
H 13.0070000   20.5120000   22.3360000  
C 14.0220000   20.7980000   17.6870000  
C 12.7250000   20.5410000   17.1230000  
C 12.3440000   21.2060000   15.9760000  
C 13.1990000   22.0190000   15.1870000  
C 14.4550000   22.2580000   15.7360000  
C 14.8760000   21.7010000   17.0220000  
C 11.5060000   19.8140000   17.5180000  
C 10.6130000   19.8810000   16.4420000  
N 11.1540000   20.7120000   15.4810000  
O  8.9310000   18.4530000   17.3290000  
C  9.2530000   19.3370000   16.3540000  
O  8.5470000   19.6450000   15.3790000  
O 15.3620000   22.8740000   14.9660000  
O 16.1230000   22.1160000   17.5290000  
H 11.2480000   19.3080000   18.4740000  
H  9.7840000   18.3190000   17.7110000  
H 10.7470000   20.9600000   14.6150000  
H 16.2690000   23.0050000   15.4520000  
H 16.3930000   21.6490000   18.3650000  
H 12.9060000   22.4100000   14.1960000  
