76
010 
C  9.3540000   14.3600000   24.0260000  
C  8.2330000   15.3260000   23.9170000  
C  8.5040000   16.5670000   23.4600000  
C  9.7820000   16.9720000   23.0690000  
C 10.9410000   16.2100000   23.0730000  
C 10.7790000   14.8620000   23.5320000  
C  7.5810000   17.6770000   23.2060000  
C  8.3210000   18.7530000   22.7230000  
N  9.6710000   18.2890000   22.6620000  
O  6.4520000   20.1140000   22.3370000  
C  7.7560000   20.0830000   22.4320000  
O  8.3660000   21.0500000   22.1610000  
O 11.7160000   14.0320000   23.6610000  
O  9.1970000   13.3830000   24.6830000  
H  7.2100000   14.9370000   24.1860000  
H  6.5420000   17.6170000   23.3840000  
H  6.1750000   19.1720000   22.3620000  
H 10.4000000   18.8980000   22.3160000  
C 12.1820000   16.8490000   22.6270000  
C 13.1250000   17.4280000   23.4620000  
C 14.2880000   17.8910000   23.0150000  
C 14.6030000   17.8260000   21.6500000  
C 13.6570000   17.3200000   20.7470000  
C 12.4660000   16.7310000   21.2190000  
C 13.2120000   17.6060000   24.8720000  
C 14.4490000   18.1940000   25.1220000  
N 15.0900000   18.4320000   23.9220000  
O 14.1220000   18.7310000   27.4400000  
C 14.9540000   18.7020000   26.3500000  
O 16.0640000   19.2160000   26.3790000  
O 13.9040000   17.3880000   19.3400000  
O 11.5310000   16.2940000   20.3280000  
H 12.4930000   17.2410000   25.6780000  
H 13.2870000   18.2070000   27.2220000  
H 15.9110000   18.9890000   23.8160000  
H 14.7700000   17.7800000   19.1460000  
H 11.9490000   16.3680000   19.4470000  
C 15.9440000   18.3150000   21.1600000  
C 17.0600000   17.6850000   21.6610000  
C 18.2960000   18.2370000   21.3800000  
C 18.4910000   19.3220000   20.5970000  
C 17.3800000   19.8270000   19.9240000  
C 16.1000000   19.2950000   20.1710000  
C 17.3810000   16.5870000   22.5830000  
C 18.7640000   16.4780000   22.7010000  
N 19.3090000   17.5200000   21.9660000  
O 18.4900000   14.4190000   23.8210000  
C 19.4350000   15.2880000   23.3040000  
O 20.6440000   15.1030000   23.3690000  
O 17.6030000   20.8930000   19.0950000  
O 14.9680000   19.9450000   19.6890000  
H 16.6600000   15.8770000   22.9320000  
H 17.6710000   14.9360000   23.7740000  
H 20.2910000   17.7360000   21.9880000  
H 18.5260000   20.8270000   18.9160000  
H 15.3150000   20.8050000   19.3940000  
C 19.8340000   19.8870000   20.3780000  
C 20.5510000   19.7620000   19.1610000  
C 21.7740000   20.4320000   18.8810000  
C 22.5030000   21.0130000   19.9320000  
C 21.8310000   21.1620000   21.1810000  
C 20.5090000   20.7330000   21.3160000  
C 20.2000000   19.0090000   17.9170000  
C 21.2350000   19.2400000   16.9980000  
N 22.2150000   20.0990000   17.5930000  
O 20.4480000   17.5190000   15.4930000  
C 21.4390000   18.4440000   15.6830000  
O 22.5000000   18.4560000   15.0130000  
O 22.5160000   21.7770000   22.1290000  
O 19.9140000   20.8560000   22.5390000  
H 19.2730000   18.4530000   17.8080000  
H 19.8620000   17.6070000   16.2510000  
H 23.1120000   20.3710000   17.2110000  
H 21.8120000   22.0650000   22.7320000  
H 19.0390000   20.3600000   22.4040000  
H 23.4830000   21.3700000   19.7800000  
