76
010 
C  9.0340000   15.3160000   24.0130000  
C  8.2080000   16.4610000   24.4400000  
C  8.7950000   17.6880000   24.3700000  
C  9.9480000   17.9640000   23.7090000  
C 10.8280000   17.0230000   23.1460000  
C 10.4400000   15.6120000   23.3240000  
C  8.3460000   18.9040000   24.9310000  
C  9.2030000   19.8990000   24.5820000  
N 10.1660000   19.2920000   23.7960000  
O  8.2460000   21.5850000   25.9130000  
C  9.2200000   21.2890000   25.0630000  
O 10.0100000   22.1500000   24.7690000  
O 11.2000000   14.6590000   23.1290000  
O  8.6090000   14.2150000   24.1370000  
H  7.1940000   16.1740000   24.7410000  
H  7.4950000   18.9430000   25.6040000  
H  7.6170000   20.8190000   26.0860000  
H 11.0760000   19.6670000   23.4940000  
C 12.0710000   17.4840000   22.5860000  
C 13.1630000   17.5350000   23.3990000  
C 14.3700000   17.8420000   22.9440000  
C 14.6330000   18.1790000   21.6220000  
C 13.5170000   18.1540000   20.7180000  
C 12.2430000   17.8100000   21.2300000  
C 13.2050000   17.1920000   24.8630000  
C 14.5540000   17.4230000   25.1840000  
N 15.2620000   17.7930000   24.0020000  
O 14.2290000   17.1150000   27.5060000  
C 15.1080000   17.4790000   26.5290000  
O 16.2730000   17.8090000   26.7350000  
O 13.6960000   18.5570000   19.3540000  
O 11.2150000   17.6250000   20.4080000  
H 12.3880000   16.9310000   25.5890000  
H 13.4190000   16.9860000   27.0530000  
H 16.2440000   17.8810000   23.9940000  
H 14.6420000   18.8250000   19.2900000  
H 11.5210000   17.9790000   19.5400000  
C 16.0340000   18.4400000   21.1720000  
C 16.8410000   17.3320000   21.1280000  
C 18.2170000   17.5280000   20.8900000  
C 18.8470000   18.7230000   20.6620000  
C 18.0280000   19.8180000   20.8170000  
C 16.6360000   19.7560000   21.1450000  
C 16.6190000   15.9250000   21.1140000  
C 17.8240000   15.3110000   20.8770000  
N 18.8140000   16.3250000   20.8980000  
O 16.9690000   13.0530000   20.5670000  
C 18.0820000   13.8300000   20.7430000  
O 19.2040000   13.3890000   20.7810000  
O 18.5880000   21.0540000   20.5520000  
O 15.8590000   20.8870000   21.3260000  
H 15.6190000   15.5020000   21.1700000  
H 16.2500000   13.6960000   20.3960000  
H 19.8300000   16.1410000   20.8500000  
H 19.5770000   20.9490000   20.6800000  
H 16.3590000   21.6670000   20.9300000  
C 20.2630000   18.9050000   20.1730000  
C 20.4800000   19.2980000   18.8390000  
C 21.7390000   19.3320000   18.2860000  
C 22.8540000   18.9330000   19.0000000  
C 22.6550000   18.4690000   20.3380000  
C 21.3970000   18.5680000   20.9070000  
C 19.6280000   19.9090000   17.8430000  
C 20.3750000   20.0730000   16.6810000  
N 21.7100000   19.6720000   16.9510000  
O 18.5850000   20.9610000   15.3990000  
C 19.9000000   20.6430000   15.4680000  
O 20.6390000   20.9770000   14.5110000  
O 23.8230000   18.1640000   21.0380000  
O 21.1390000   18.1870000   22.1710000  
H 18.5630000   20.0680000   18.0370000  
H 18.2730000   20.8550000   16.2940000  
H 22.5430000   19.8320000   16.4140000  
H 23.6150000   18.1750000   21.9650000  
H 20.1970000   18.1180000   22.2200000  
H 23.7940000   18.9000000   18.5390000  
