76
010 
C 10.1430000   20.5260000   26.5530000  
C 10.7930000   20.3060000   27.8080000  
C 12.0070000   19.7100000   27.9610000  
C 12.8090000   19.2870000   26.8890000  
C 12.3870000   19.5180000   25.5870000  
C 11.1050000   20.2670000   25.3210000  
C 12.8460000   19.3060000   29.1190000  
C 13.9920000   18.6530000   28.6940000  
N 13.9960000   18.7650000   27.3250000  
O 14.7440000   17.9960000   30.7490000  
C 15.1310000   18.1690000   29.4670000  
O 16.2280000   17.8880000   29.0040000  
O 10.6790000   20.4680000   24.2150000  
O  9.1000000   21.1240000   26.4910000  
H 10.2200000   20.6350000   28.7070000  
H 12.6120000   19.5110000   30.1220000  
H 13.8210000   18.3660000   30.8440000  
H 14.7260000   18.4420000   26.6640000  
C 13.2210000   19.1000000   24.4640000  
C 13.2510000   17.7230000   24.1190000  
C 14.1060000   17.2850000   23.2010000  
C 14.8720000   18.1570000   22.3440000  
C 14.8500000   19.5710000   22.7530000  
C 14.0180000   20.0320000   23.7560000  
C 12.4720000   16.6150000   24.5470000  
C 12.8240000   15.5310000   23.7600000  
N 13.8440000   15.9540000   22.8730000  
O 11.4190000   13.9670000   24.8790000  
C 12.2670000   14.1410000   23.8410000  
O 12.5550000   13.1930000   23.0900000  
O 15.5850000   20.4540000   22.0510000  
O 13.9020000   21.3120000   24.1290000  
H 11.6900000   16.6660000   25.2800000  
H 11.5770000   14.8640000   25.3310000  
H 14.3510000   15.4170000   22.1290000  
H 16.1060000   19.9800000   21.3770000  
H 14.5230000   21.7650000   23.4860000  
C 15.7570000   17.7120000   21.1870000  
C 15.7240000   18.3330000   19.8770000  
C 16.4970000   17.8970000   18.8160000  
C 17.4330000   16.9100000   18.9760000  
C 17.5030000   16.2810000   20.2040000  
C 16.6920000   16.6430000   21.2910000  
C 14.9250000   19.3090000   19.2020000  
C 15.1980000   19.3750000   17.8580000  
N 16.3360000   18.5630000   17.6450000  
O 13.6690000   21.0110000   17.1690000  
C 14.5730000   20.1620000   16.8020000  
O 14.8540000   20.0190000   15.6480000  
O 18.4390000   15.3550000   20.5210000  
O 16.8080000   15.9960000   22.5030000  
H 14.0660000   19.7990000   19.5870000  
H 13.6890000   20.9820000   18.1450000  
H 16.8260000   18.3800000   16.7910000  
H 18.9770000   15.2390000   19.7670000  
H 17.5260000   15.3520000   22.2660000  
C 18.3250000   16.6130000   17.8100000  
C 19.2900000   17.6210000   17.3790000  
C 20.2160000   17.3270000   16.3600000  
C 20.2410000   16.0950000   15.7100000  
C 19.2630000   15.1600000   16.0320000  
C 18.3600000   15.3840000   17.0910000  
C 19.5840000   18.9270000   17.8040000  
C 20.6570000   19.3310000   16.9660000  
N 21.0910000   18.3300000   16.1790000  
O 20.9380000   21.6530000   17.7400000  
C 21.2810000   20.6470000   16.8880000  
O 22.2180000   20.7950000   16.1110000  
O 19.2720000   13.9000000   15.4170000  
O 17.3660000   14.4390000   17.3200000  
H 19.2530000   19.4750000   18.6400000  
H 20.1100000   21.3870000   18.1640000  
H 21.8050000   18.4420000   15.4840000  
H 18.6390000   13.3610000   15.8530000  
H 16.6090000   14.8830000   17.7450000  
H 21.0690000   15.9820000   14.9550000  
