76
010 
C  9.5040000   14.5760000   25.0620000  
C  8.4350000   14.9460000   24.1450000  
C  8.7390000   15.6870000   23.0250000  
C 10.0190000   16.0100000   22.6260000  
C 11.1620000   15.7390000   23.3690000  
C 10.9570000   15.0790000   24.7080000  
C  7.9170000   15.9410000   21.8680000  
C  8.6940000   16.3960000   20.8100000  
N 10.0080000   16.4620000   21.3430000  
O  7.1560000   16.6480000   19.0270000  
C  8.3960000   16.8470000   19.4720000  
O  9.2900000   17.1970000   18.7900000  
O 11.9410000   14.7920000   25.4150000  
O  9.3010000   13.9230000   26.0720000  
H  7.4770000   14.5220000   24.4680000  
H  6.8930000   15.7570000   22.0250000  
H  6.7570000   16.2350000   19.7760000  
H 10.7770000   16.7520000   20.7760000  
C 12.4710000   16.2160000   22.9060000  
C 12.9550000   17.4700000   23.3600000  
C 14.1530000   17.9540000   22.8610000  
C 14.9190000   17.2900000   21.8570000  
C 14.4450000   16.0270000   21.4570000  
C 13.2170000   15.5030000   21.9140000  
C 12.4330000   18.4580000   24.2300000  
C 13.3490000   19.5240000   24.1280000  
N 14.4620000   19.1710000   23.3390000  
O 12.1170000   21.0640000   25.4500000  
C 13.1460000   20.8770000   24.6440000  
O 13.9400000   21.7470000   24.4240000  
O 15.1100000   15.3330000   20.4640000  
O 12.7520000   14.3000000   21.3660000  
H 11.4180000   18.4600000   24.7380000  
H 11.6020000   20.2260000   25.2870000  
H 15.3600000   19.6520000   23.2480000  
H 16.0130000   15.6820000   20.4410000  
H 13.3680000   13.9230000   20.7150000  
C 16.1670000   17.9350000   21.3300000  
C 17.2080000   17.9860000   22.1610000  
C 18.3580000   18.6600000   21.8050000  
C 18.4520000   19.4730000   20.6740000  
C 17.3610000   19.4800000   19.8110000  
C 16.1750000   18.7080000   20.1490000  
C 17.4730000   17.3930000   23.4210000  
C 18.7760000   17.6890000   23.7710000  
N 19.3340000   18.5060000   22.7310000  
O 18.7090000   16.5100000   25.8950000  
C 19.4650000   17.2890000   25.0030000  
O 20.6630000   17.5720000   25.2090000  
O 17.4380000   20.1290000   18.6200000  
O 15.1160000   18.6770000   19.2750000  
H 16.6990000   16.9580000   24.1150000  
H 17.8080000   16.3820000   25.5810000  
H 20.3140000   18.7340000   22.6130000  
H 18.4360000   20.3090000   18.5360000  
H 15.3570000   18.9890000   18.3780000  
C 19.5820000   20.3390000   20.4810000  
C 20.4440000   20.1720000   19.3890000  
C 21.6010000   20.9540000   19.2960000  
C 21.8730000   22.0520000   20.1460000  
C 20.9390000   22.3470000   21.1670000  
C 19.7990000   21.5090000   21.3110000  
C 20.4610000   19.2410000   18.2830000  
C 21.6960000   19.4420000   17.6790000  
N 22.2750000   20.6270000   18.1450000  
O 21.6040000   17.4400000   16.4010000  
C 22.2480000   18.5640000   16.6580000  
O 23.2540000   18.8090000   16.0510000  
O 21.2070000   23.2920000   22.1060000  
O 18.9710000   21.7770000   22.3780000  
H 19.6720000   18.4100000   18.0870000  
H 21.1570000   17.2820000   17.2330000  
H 23.0320000   21.1600000   17.7910000  
H 20.3710000   23.5810000   22.5180000  
H 18.4310000   20.9930000   22.5610000  
H 22.7150000   22.6890000   20.0520000  
