76
010 
C 12.7790000   11.1250000   20.0860000  
C 11.3570000   11.4820000   19.7930000  
C 10.8920000   12.7200000   20.0890000  
C 11.7250000   13.7460000   20.5280000  
C 13.0610000   13.6300000   20.8500000  
C 13.6770000   12.2630000   20.7670000  
C  9.6160000   13.2880000   19.9450000  
C  9.6920000   14.6820000   20.3070000  
N 10.9660000   14.8840000   20.6400000  
O  7.4830000   15.2590000   19.6520000  
C  8.6210000   15.6750000   20.2000000  
O  8.7170000   16.8090000   20.5540000  
O 14.7890000   11.9980000   21.1530000  
O 13.2650000   10.1070000   19.6690000  
H 10.7360000   10.6830000   19.3440000  
H  8.7070000   12.7770000   19.6280000  
H  7.6020000   14.3390000   19.5490000  
H 11.3230000   15.7660000   20.6180000  
C 13.7950000   14.8920000   21.0700000  
C 13.5570000   15.7080000   22.2290000  
C 14.2240000   16.8570000   22.4430000  
C 15.2680000   17.3060000   21.7260000  
C 15.5340000   16.4720000   20.5530000  
C 14.8350000   15.2830000   20.2110000  
C 12.8330000   15.4220000   23.4770000  
C 13.0620000   16.5150000   24.3510000  
N 14.0670000   17.2300000   23.7480000  
O 11.4810000   15.9170000   26.0700000  
C 12.5070000   16.7330000   25.7260000  
O 12.9640000   17.5810000   26.4680000  
O 16.5470000   16.9490000   19.8060000  
O 15.2550000   14.5010000   19.2150000  
H 12.2750000   14.6030000   23.6910000  
H 11.1750000   15.6110000   25.2390000  
H 14.6380000   17.8720000   24.1880000  
H 17.0100000   17.5460000   20.4400000  
H 16.1360000   14.7760000   18.8930000  
C 16.0330000   18.5870000   22.0130000  
C 17.3290000   18.5350000   22.5150000  
C 18.0230000   19.7080000   22.7730000  
C 17.4540000   21.0020000   22.7310000  
C 16.0940000   21.0050000   22.3790000  
C 15.3270000   19.8260000   22.1820000  
C 18.2860000   17.5150000   22.5830000  
C 19.5420000   18.1450000   22.9730000  
N 19.3130000   19.4770000   23.0120000  
O 20.9200000   16.2080000   22.8310000  
C 20.8660000   17.4880000   23.0930000  
O 21.8050000   18.1510000   23.4750000  
O 15.5240000   22.2470000   22.3200000  
O 13.9900000   20.0350000   21.8710000  
H 18.0890000   16.4380000   22.4850000  
H 20.0520000   16.1730000   22.4000000  
H 20.0870000   20.1380000   23.1270000  
H 16.2080000   22.9120000   22.6430000  
H 13.5780000   19.1670000   21.9170000  
C 18.3190000   22.2300000   22.7170000  
C 18.5070000   22.9910000   21.5490000  
C 19.3510000   24.1050000   21.4990000  
C 19.9870000   24.5770000   22.5770000  
C 19.7950000   23.9300000   23.8200000  
C 18.9570000   22.7990000   23.9150000  
C 18.0080000   22.8470000   20.1770000  
C 18.6510000   23.7840000   19.3640000  
N 19.5450000   24.4780000   20.1750000  
O 17.6290000   22.9480000   17.3370000  
C 18.4320000   23.8400000   17.9230000  
O 18.9660000   24.6610000   17.1960000  
O 20.3670000   24.5960000   24.9280000  
O 18.6900000   22.2180000   25.1230000  
H 17.3470000   22.0520000   19.8970000  
H 17.2330000   22.4360000   18.0490000  
H 20.1560000   25.2390000   19.9360000  
H 20.1420000   24.0610000   25.7640000  
H 18.0240000   21.4900000   24.9670000  
H 20.5580000   25.5300000   22.4190000  
