76
010 
C 15.5700000   10.5730000   19.8970000  
C 14.0630000   10.3350000   19.9360000  
C 13.2430000   11.2890000   20.4150000  
C 13.6180000   12.6040000   20.6860000  
C 14.9250000   13.0010000   20.6070000  
C 15.9690000   12.1090000   20.2360000  
C 11.7790000   11.2920000   20.5630000  
C 11.3520000   12.5960000   20.7990000  
N 12.5080000   13.4160000   20.9520000  
O  8.9480000   12.1320000   20.7240000  
C  9.9240000   13.0360000   21.1610000  
O  9.6690000   14.0810000   21.7570000  
O 17.1350000   12.5910000   20.1730000  
O 16.3990000    9.7320000   19.5880000  
H 13.7630000    9.3140000   19.6370000  
H 11.1350000   10.4660000   20.3240000  
H  9.4870000   11.4390000   20.3360000  
H 12.5690000   14.4340000   21.0800000  
C 15.1120000   14.4190000   20.8050000  
C 15.0750000   15.1050000   22.0120000  
C 15.2770000   16.4720000   22.0860000  
C 15.4450000   17.2970000   20.9700000  
C 15.5360000   16.6320000   19.7330000  
C 15.4320000   15.2110000   19.6850000  
C 14.8000000   14.5790000   23.3680000  
C 14.7930000   15.7120000   24.1590000  
N 15.1720000   16.8560000   23.4150000  
O 14.4000000   14.3740000   26.1720000  
C 14.6010000   15.6070000   25.6190000  
O 14.7390000   16.5700000   26.3590000  
O 15.7020000   17.3350000   18.5330000  
O 15.6400000   14.7000000   18.4730000  
H 14.7520000   13.5460000   23.7250000  
H 14.5150000   13.7070000   25.4650000  
H 15.2840000   17.8210000   23.7480000  
H 15.4480000   18.2800000   18.8550000  
H 16.0040000   15.3030000   17.8560000  
C 15.6540000   18.7910000   21.1670000  
C 16.7560000   19.2310000   22.0210000  
C 16.8450000   20.4990000   22.4250000  
C 15.9810000   21.5420000   21.9780000  
C 14.8570000   21.1780000   21.1490000  
C 14.7690000   19.8010000   20.7300000  
C 17.9450000   18.4770000   22.4990000  
C 18.4820000   19.3680000   23.4470000  
N 17.8910000   20.6110000   23.3690000  
O 20.0520000   17.6870000   24.3060000  
C 19.5310000   18.9520000   24.4600000  
O 19.9960000   19.7400000   25.3200000  
O 14.0080000   22.1150000   20.5690000  
O 13.5960000   19.3950000   20.1280000  
H 18.2630000   17.4140000   22.3500000  
H 19.6830000   17.3500000   23.4980000  
H 18.1040000   21.4290000   23.9550000  
H 14.2730000   22.9810000   20.9190000  
H 13.0180000   20.1920000   20.1280000  
C 16.1350000   22.9430000   22.4260000  
C 16.6050000   23.9830000   21.5970000  
C 16.7890000   25.3030000   22.0000000  
C 16.4750000   25.6970000   23.2720000  
C 16.0880000   24.7460000   24.2290000  
C 15.8180000   23.4060000   23.7400000  
C 17.1100000   23.9480000   20.2550000  
C 17.5010000   25.2390000   19.9460000  
N 17.2860000   26.0880000   21.0480000  
O 18.2520000   24.6460000   17.7730000  
C 18.0450000   25.7000000   18.6130000  
O 18.4380000   26.8210000   18.4130000  
O 15.8220000   25.0390000   25.5440000  
O 15.3830000   22.4160000   24.6500000  
H 17.3550000   23.1280000   19.6460000  
H 17.8680000   23.8900000   18.1870000  
H 17.2640000   27.0750000   20.9720000  
H 15.4770000   24.2960000   26.0640000  
H 15.2020000   21.6540000   24.1570000  
H 16.6450000   26.6930000   23.6020000  
