76
010 
C 13.7210000   15.3260000   28.3100000  
C 12.6970000   16.2040000   28.9580000  
C 12.1970000   17.2590000   28.2690000  
C 12.5880000   17.5520000   26.9480000  
C 13.5110000   16.8430000   26.2010000  
C 14.3000000   15.7650000   26.9040000  
C 11.1100000   18.2270000   28.5360000  
C 10.9030000   18.9810000   27.3390000  
N 11.7380000   18.4170000   26.4180000  
O  9.1680000   20.2460000   28.3580000  
C  9.7790000   19.9590000   27.2030000  
O  9.4050000   20.5440000   26.1940000  
O 15.2480000   15.2200000   26.3670000  
O 14.1040000   14.3570000   28.9790000  
H 12.3990000   15.9690000   30.0010000  
H 10.5150000   18.3010000   29.4710000  
H  9.6990000   19.7470000   28.9530000  
H 11.8290000   18.7620000   25.4450000  
C 13.8660000   17.4300000   24.9320000  
C 14.9080000   18.3690000   24.6920000  
C 15.2950000   18.7370000   23.4290000  
C 14.7970000   18.0830000   22.2980000  
C 13.6680000   17.2110000   22.5070000  
C 13.2140000   16.9450000   23.8210000  
C 15.9920000   18.8870000   25.5280000  
C 16.8650000   19.6610000   24.7570000  
N 16.4610000   19.4820000   23.4410000  
O 18.1640000   20.4890000   26.5340000  
C 17.9960000   20.3900000   25.2020000  
O 18.7730000   20.9370000   24.4760000  
O 13.0770000   16.4600000   21.5090000  
O 12.2330000   15.9660000   23.9780000  
H 16.0450000   18.7290000   26.5960000  
H 17.5940000   19.9510000   27.0270000  
H 16.9480000   19.8500000   22.6090000  
H 13.5580000   16.7150000   20.7220000  
H 12.1440000   15.5550000   23.0830000  
C 15.3700000   18.3220000   20.9850000  
C 16.6590000   17.8150000   20.7140000  
C 17.2070000   18.1380000   19.5450000  
C 16.5200000   18.8210000   18.4750000  
C 15.2500000   19.2890000   18.7050000  
C 14.7140000   19.0710000   19.9760000  
C 17.6080000   17.0200000   21.4540000  
C 18.7160000   16.9180000   20.6860000  
N 18.5060000   17.6150000   19.4600000  
O 20.0010000   15.5350000   22.1320000  
C 20.0320000   16.2620000   20.9770000  
O 20.9490000   16.2470000   20.2220000  
O 14.6500000   20.1520000   17.7700000  
O 13.4540000   19.4910000   20.1590000  
H 17.4970000   16.6690000   22.4840000  
H 19.0790000   15.6500000   22.4470000  
H 19.1370000   17.7530000   18.6590000  
H 15.2010000   20.3530000   16.9790000  
H 13.1580000   19.3100000   21.0600000  
C 17.3090000   19.2140000   17.2240000  
C 16.9990000   18.4890000   16.0210000  
C 17.5830000   18.8380000   14.8940000  
C 18.5460000   19.8490000   14.7550000  
C 18.8850000   20.6420000   15.8990000  
C 18.2010000   20.3760000   17.1160000  
C 16.1880000   17.3000000   15.7440000  
C 16.4390000   17.0470000   14.4010000  
N 17.1780000   18.0560000   13.8520000  
O 14.9600000   15.1920000   14.3660000  
C 15.8560000   15.8880000   13.6650000  
O 16.2130000   15.5710000   12.6040000  
O 19.8260000   21.6820000   15.7640000  
O 18.5570000   21.1100000   18.1940000  
H 15.5380000   16.8320000   16.4620000  
H 14.9250000   15.6490000   15.2530000  
H 17.2960000   18.2690000   12.8350000  
H 20.0340000   21.8460000   14.8180000  
H 19.4470000   21.4830000   18.0520000  
H 18.9900000   19.9750000   13.7320000  
