76
010 
C 17.8750000   16.6530000   28.9130000  
C 18.0550000   15.2030000   28.8720000  
C 17.9920000   14.5760000   27.6650000  
C 17.6800000   15.2110000   26.4270000  
C 17.3560000   16.5180000   26.3490000  
C 17.3290000   17.3190000   27.5640000  
C 18.0990000   13.1960000   27.2880000  
C 17.9750000   13.0050000   25.9110000  
N 17.6500000   14.2850000   25.3960000  
O 18.5480000   10.7530000   25.8250000  
C 18.1630000   11.8320000   25.0440000  
O 18.0230000   11.7490000   23.8450000  
O 17.0100000   18.5110000   27.4910000  
O 18.0740000   17.3000000   29.9010000  
H 18.3620000   14.7330000   29.8080000  
H 18.2780000   12.4540000   28.0420000  
H 18.6880000   11.2250000   26.6470000  
H 17.4770000   14.4390000   24.3990000  
C 16.8990000   16.9470000   25.0080000  
C 15.5900000   17.3100000   24.9100000  
C 14.9870000   17.6850000   23.7450000  
C 15.7270000   17.8940000   22.5410000  
C 17.0890000   17.4860000   22.6360000  
C 17.7150000   17.0780000   23.8950000  
C 14.5550000   17.4350000   25.8640000  
C 13.3640000   17.8300000   25.2360000  
N 13.6610000   17.9270000   23.9050000  
O 12.1110000   18.2270000   27.1450000  
C 12.0260000   17.9310000   25.8430000  
O 11.0010000   18.0670000   25.2110000  
O 17.8820000   17.5780000   21.4480000  
O 19.0840000   16.9000000   24.0090000  
H 14.5790000   17.1460000   26.9190000  
H 13.0450000   18.3650000   27.3660000  
H 13.0050000   18.0860000   23.1880000  
H 17.1810000   17.7050000   20.7930000  
H 19.4280000   17.0270000   23.0990000  
C 15.1150000   18.4190000   21.2520000  
C 15.6040000   19.5970000   20.7020000  
C 15.0320000   20.1200000   19.6070000  
C 13.9110000   19.5970000   18.8820000  
C 13.4060000   18.3890000   19.4320000  
C 13.9760000   17.7870000   20.6010000  
C 16.7160000   20.5230000   21.0000000  
C 16.6860000   21.5690000   20.0880000  
N 15.5790000   21.3470000   19.2140000  
O 18.8260000   22.4970000   20.6420000  
C 17.7950000   22.5410000   19.8200000  
O 17.7470000   23.3990000   18.9680000  
O 12.3070000   17.9030000   18.8460000  
O 13.4730000   16.6180000   21.0980000  
H 17.4340000   20.4740000   21.8450000  
H 18.5760000   21.8500000   21.3500000  
H 15.1880000   22.0320000   18.6070000  
H 11.9250000   18.7130000   18.3670000  
H 12.8790000   16.2480000   20.3890000  
C 13.3280000   20.1870000   17.6620000  
C 13.9480000   20.1040000   16.3890000  
C 13.3480000   20.5730000   15.2450000  
C 12.2240000   21.4510000   15.2580000  
C 11.5970000   21.5790000   16.5500000  
C 12.1220000   20.9200000   17.7230000  
C 14.9700000   19.1580000   16.0620000  
C 15.0370000   19.2440000   14.6990000  
N 14.0140000   20.0470000   14.1720000  
O 16.8230000   17.6240000   14.3620000  
C 16.0020000   18.5840000   13.8120000  
O 16.0780000   18.8500000   12.6150000  
O 10.4040000   22.2350000   16.6440000  
O 11.4540000   21.0280000   18.9420000  
H 15.6050000   18.5970000   16.7830000  
H 16.3290000   17.6960000   15.2180000  
H 13.9530000   20.3960000   13.2640000  
H 10.3910000   22.8340000   15.9440000  
H 11.9490000   20.4770000   19.6480000  
H 11.8260000   21.8880000   14.3940000  
