76
010 
C 11.0260000   15.4630000   26.9140000  
C 10.1610000   16.5260000   27.3240000  
C 10.1370000   17.6900000   26.6660000  
C 10.9250000   17.8740000   25.5500000  
C 11.9890000   17.0780000   25.1600000  
C 12.2130000   15.7830000   25.8990000  
C  9.3120000   18.8430000   26.7610000  
C  9.5490000   19.6840000   25.6540000  
N 10.6260000   19.0890000   24.9710000  
O  7.8020000   21.3200000   26.2070000  
C  8.8220000   20.9730000   25.3750000  
O  9.0460000   21.7320000   24.4310000  
O 13.1250000   15.0010000   25.8410000  
O 10.9760000   14.3620000   27.3730000  
H  9.5020000   16.4050000   28.2440000  
H  8.4980000   18.9940000   27.4930000  
H  8.0300000   20.7740000   26.9890000  
H 11.0180000   19.4080000   24.0980000  
C 12.8970000   17.4840000   24.1310000  
C 14.2350000   17.6480000   24.4190000  
C 15.1300000   18.0090000   23.4700000  
C 14.7510000   18.1290000   22.1020000  
C 13.4120000   17.8710000   21.7630000  
C 12.5010000   17.5650000   22.7700000  
C 14.9620000   17.5380000   25.6800000  
C 16.2420000   17.9910000   25.3660000  
N 16.3480000   18.3420000   24.0290000  
O 16.8680000   17.7680000   27.5550000  
C 17.2800000   18.0510000   26.3370000  
O 18.4310000   18.4010000   26.1250000  
O 12.9370000   18.0590000   20.5710000  
O 11.1800000   17.2830000   22.4750000  
H 14.4840000   17.3120000   26.6460000  
H 15.8600000   17.8480000   27.5180000  
H 17.1650000   18.5730000   23.4140000  
H 13.6740000   17.9920000   19.9770000  
H 11.1480000   17.7220000   21.6110000  
C 15.7050000   18.5770000   21.0870000  
C 16.9120000   17.8840000   20.8690000  
C 17.8140000   18.2860000   19.9360000  
C 17.7740000   19.5460000   19.2550000  
C 16.6270000   20.3710000   19.5200000  
C 15.6110000   19.8500000   20.3640000  
C 17.3800000   16.6370000   21.4360000  
C 18.5350000   16.3440000   20.6800000  
N 18.8570000   17.4150000   19.8490000  
O 18.7740000   14.1620000   21.4710000  
C 19.3460000   15.1030000   20.6860000  
O 20.3990000   14.9340000   20.0770000  
O 16.3770000   21.4840000   18.7760000  
O 14.5470000   20.6460000   20.6040000  
H 16.8020000   15.9030000   22.0130000  
H 18.0260000   14.4880000   22.0170000  
H 19.8450000   17.4590000   19.4640000  
H 16.9640000   21.4650000   17.9980000  
H 14.6580000   21.4240000   20.0070000  
C 18.6990000   19.7810000   18.1590000  
C 18.8420000   18.8110000   17.1550000  
C 19.6830000   18.9390000   16.0790000  
C 20.4920000   20.0400000   15.9540000  
C 20.3780000   21.0950000   16.9210000  
C 19.4520000   21.0030000   17.9950000  
C 18.2740000   17.4730000   17.0400000  
C 18.8610000   16.8430000   15.9050000  
N 19.7250000   17.8050000   15.2930000  
O 17.8320000   14.6230000   16.1180000  
C 18.6210000   15.4450000   15.3680000  
O 19.2050000   15.0340000   14.3670000  
O 21.0900000   22.2160000   16.7420000  
O 19.3880000   21.9870000   18.8970000  
H 17.4870000   17.1070000   17.6500000  
H 17.4210000   15.1490000   16.8070000  
H 20.1440000   17.6390000   14.3650000  
H 21.0970000   22.6810000   17.5360000  
H 18.7730000   21.5610000   19.5470000  
H 21.1260000   20.0990000   15.0710000  
