76
010 
C 12.0080000   17.8250000   28.5610000  
C 10.8040000   17.0650000   28.2470000  
C 10.5560000   16.6990000   26.9390000  
C 11.3670000   17.0560000   25.8800000  
C 12.6190000   17.4950000   26.0640000  
C 13.0440000   17.9660000   27.3830000  
C  9.4410000   15.9950000   26.2770000  
C  9.7170000   15.8810000   24.8840000  
N 10.9020000   16.5510000   24.6570000  
O  7.6270000   14.8970000   24.3570000  
C  8.7970000   15.3980000   23.8520000  
O  8.8940000   15.5430000   22.6100000  
O 14.1670000   18.4810000   27.6160000  
O 12.2730000   18.1250000   29.7610000  
H 10.2500000   16.7170000   29.1370000  
H  8.5770000   15.6620000   26.8200000  
H  7.7490000   14.9680000   25.3580000  
H 11.2920000   16.6960000   23.7230000  
C 13.5860000   17.5130000   24.9590000  
C 13.5950000   18.5620000   24.0500000  
C 14.4810000   18.6130000   23.0220000  
C 15.5690000   17.7020000   22.8970000  
C 15.6850000   16.6960000   23.9150000  
C 14.7090000   16.6470000   24.9500000  
C 12.7000000   19.6650000   23.9240000  
C 13.1420000   20.3140000   22.7770000  
N 14.1990000   19.6050000   22.1310000  
O 11.6260000   22.1430000   22.9600000  
C 12.5900000   21.5840000   22.2120000  
O 13.0310000   22.0250000   21.1460000  
O 16.6630000   15.7600000   23.9350000  
O 14.7560000   15.6020000   25.7960000  
H 11.9700000   20.0440000   24.6320000  
H 11.7730000   21.5510000   23.7420000  
H 14.5710000   19.7140000   21.1830000  
H 17.2810000   15.9790000   23.1840000  
H 15.6060000   15.1430000   25.7220000  
C 16.4700000   17.7080000   21.6860000  
C 17.1810000   18.8830000   21.3640000  
C 17.8350000   18.9720000   20.1810000  
C 17.8700000   18.0030000   19.1860000  
C 17.1130000   16.8950000   19.4820000  
C 16.4450000   16.6760000   20.7440000  
C 17.3160000   20.0620000   22.1020000  
C 17.9970000   20.9340000   21.2570000  
N 18.2770000   20.2710000   20.0530000  
O 17.7240000   22.8280000   22.6670000  
C 18.2430000   22.4070000   21.4950000  
O 18.8380000   23.1030000   20.6700000  
O 16.9750000   15.9960000   18.4810000  
O 15.6450000   15.5020000   20.9190000  
H 16.9630000   20.2520000   23.1250000  
H 17.1670000   22.1020000   22.9880000  
H 18.8840000   20.5850000   19.3300000  
H 17.7460000   16.1070000   17.9340000  
H 15.5640000   15.5160000   21.9310000  
C 18.2960000   18.3960000   17.8170000  
C 19.4600000   17.8010000   17.2280000  
C 19.8840000   18.1240000   15.9880000  
C 19.0040000   18.8470000   15.1150000  
C 17.7660000   19.3620000   15.6100000  
C 17.5030000   19.2850000   16.9890000  
C 20.3670000   16.8180000   17.8070000  
C 21.2880000   16.6400000   16.7750000  
N 21.0310000   17.4100000   15.6690000  
O 22.5370000   15.0410000   18.0370000  
C 22.4640000   15.6290000   16.8800000  
O 23.2210000   15.3440000   16.0290000  
O 16.9390000   20.0970000   14.6950000  
O 16.3060000   19.7220000   17.4820000  
H 20.3860000   16.2960000   18.7650000  
H 21.8360000   15.4780000   18.6240000  
H 21.4830000   17.3560000   14.8030000  
H 17.4610000   20.4520000   13.9690000  
H 15.7030000   19.9650000   16.7380000  
H 19.2780000   19.0400000   14.1340000  
