76
010 
C 13.4160000   10.9440000   23.0900000  
C 14.6790000   10.1440000   22.9630000  
C 15.8010000   10.7860000   22.5060000  
C 15.7100000   12.1630000   22.1310000  
C 14.6890000   13.0420000   22.2820000  
C 13.4120000   12.4520000   22.7350000  
C 17.1030000   10.3180000   22.3580000  
C 17.8550000   11.3450000   21.8380000  
N 16.9820000   12.4160000   21.7120000  
O 19.9430000   10.2040000   21.3740000  
C 19.3040000   11.3930000   21.4260000  
O 19.8760000   12.3940000   21.1180000  
O 12.4590000   13.1570000   23.0460000  
O 12.4120000   10.2630000   23.4080000  
H 14.7070000    9.1260000   23.2390000  
H 17.4390000    9.3120000   22.5220000  
H 19.2350000    9.5570000   21.5410000  
H 17.3380000   13.3240000   21.5070000  
C 14.9270000   14.4350000   22.1660000  
C 14.3020000   15.2240000   21.1850000  
C 14.5730000   16.5640000   21.1680000  
C 15.5120000   17.2500000   21.9560000  
C 16.2530000   16.4380000   22.9000000  
C 15.9690000   15.0550000   22.9500000  
C 13.2560000   15.0200000   20.2680000  
C 13.0670000   16.2170000   19.5640000  
N 13.8310000   17.2370000   20.1880000  
O 11.5030000   15.2890000   18.1340000  
C 12.0530000   16.4340000   18.5480000  
O 11.8090000   17.5340000   18.0920000  
O 17.2490000   16.9530000   23.6230000  
O 16.7380000   14.3320000   23.9000000  
H 12.6830000   14.0960000   20.1850000  
H 11.9550000   14.6120000   18.7280000  
H 13.9870000   18.1880000   19.8960000  
H 17.3180000   17.8550000   23.3980000  
H 17.4200000   14.8740000   24.2930000  
C 15.7060000   18.7080000   21.6280000  
C 14.7170000   19.6610000   21.9240000  
C 14.9450000   20.9850000   21.5580000  
C 16.0190000   21.4470000   20.8940000  
C 17.0370000   20.4850000   20.5930000  
C 16.8920000   19.1200000   20.9480000  
C 13.5040000   19.6680000   22.7580000  
C 13.1190000   21.0120000   22.7830000  
N 14.0280000   21.8140000   22.1020000  
O 11.0260000   20.5370000   23.7790000  
C 11.8510000   21.4800000   23.3000000  
O 11.4940000   22.6290000   23.2640000  
O 18.0550000   20.9250000   19.8380000  
O 17.8300000   18.1720000   20.6600000  
H 13.0120000   18.7880000   23.2370000  
H 11.5430000   19.7340000   23.6370000  
H 13.9090000   22.8280000   21.9990000  
H 18.0400000   21.9320000   20.0670000  
H 18.4170000   18.5280000   19.9570000  
C 16.1510000   22.9130000   20.6540000  
C 16.9040000   23.6640000   21.5440000  
C 16.8120000   24.9990000   21.5830000  
C 16.1260000   25.7560000   20.6370000  
C 15.3780000   25.0130000   19.6580000  
C 15.3360000   23.5970000   19.7630000  
C 17.7440000   23.2440000   22.6690000  
C 18.1420000   24.3940000   23.2540000  
N 17.5500000   25.4410000   22.5930000  
O 19.5310000   23.4010000   24.9320000  
C 19.0060000   24.5810000   24.4260000  
O 19.2350000   25.6970000   24.8430000  
O 14.6290000   25.6120000   18.6500000  
O 14.5510000   22.9240000   18.9170000  
H 18.3080000   22.2790000   22.7490000  
H 19.4260000   22.7160000   24.2290000  
H 17.6410000   26.4250000   22.8500000  
H 14.5480000   26.5000000   18.7630000  
H 14.4490000   22.0230000   19.2690000  
H 16.2040000   26.8770000   20.5790000  
