76
010 
C 14.3870000   11.1430000   23.5340000  
C 13.9440000   10.3460000   22.3420000  
C 13.7520000   10.9810000   21.1820000  
C 14.1480000   12.3310000   20.9660000  
C 14.6940000   13.0880000   21.9440000  
C 14.7470000   12.6380000   23.3320000  
C 13.3810000   10.4950000   19.8660000  
C 13.5920000   11.5080000   18.9040000  
N 14.0780000   12.6500000   19.6270000  
O 12.7380000   10.3380000   17.0640000  
C 13.3130000   11.4710000   17.5080000  
O 13.4610000   12.4310000   16.7580000  
O 15.1500000   13.3410000   24.2780000  
O 14.5200000   10.5670000   24.6230000  
H 13.7710000    9.3040000   22.5600000  
H 13.0560000    9.4530000   19.7390000  
H 12.5390000    9.9280000   17.8890000  
H 14.5560000   13.4170000   19.2820000  
C 15.0250000   14.4840000   21.5500000  
C 13.9380000   15.4150000   21.4610000  
C 14.1580000   16.7750000   21.4750000  
C 15.4660000   17.3380000   21.5460000  
C 16.5110000   16.4420000   21.6030000  
C 16.3410000   14.9860000   21.5600000  
C 12.4820000   15.2140000   21.4990000  
C 11.9700000   16.5380000   21.3150000  
N 12.9600000   17.4810000   21.3840000  
O  9.6700000   15.7160000   21.2620000  
C 10.5320000   16.8120000   21.1820000  
O 10.1380000   17.9180000   20.9880000  
O 17.7990000   16.9600000   21.5030000  
O 17.3620000   14.0440000   21.5570000  
H 11.9590000   14.2590000   21.6090000  
H 10.3160000   14.9800000   21.2510000  
H 12.7570000   18.4590000   21.4610000  
H 17.7770000   17.9300000   21.3660000  
H 18.2360000   14.4450000   21.3200000  
C 15.6720000   18.8220000   21.5180000  
C 15.6920000   19.5260000   22.6800000  
C 16.0010000   20.8140000   22.6910000  
C 16.2080000   21.6290000   21.5660000  
C 16.2330000   20.9560000   20.3060000  
C 16.1170000   19.4920000   20.3590000  
C 15.5920000   19.1630000   24.0840000  
C 15.6820000   20.3500000   24.8230000  
N 16.1540000   21.2990000   23.9850000  
O 15.1570000   19.5280000   27.0310000  
C 15.6240000   20.5650000   26.2780000  
O 16.0370000   21.5800000   26.8620000  
O 16.5690000   21.5560000   19.1370000  
O 16.4030000   18.7550000   19.2500000  
H 15.2480000   18.1560000   24.4680000  
H 14.8340000   18.8660000   26.4290000  
H 16.4720000   22.2230000   24.2160000  
H 16.7390000   22.4540000   19.1960000  
H 16.5850000   19.3940000   18.4720000  
C 16.5570000   23.0480000   21.7590000  
C 17.8490000   23.6010000   21.6700000  
C 18.1190000   24.9670000   21.7000000  
C 17.1540000   25.8370000   22.0690000  
C 15.8520000   25.3120000   22.3180000  
C 15.5370000   23.9900000   22.1800000  
C 19.1710000   22.9710000   21.3580000  
C 20.1370000   23.9700000   21.4270000  
N 19.4820000   25.1710000   21.5470000  
O 22.0290000   22.4750000   21.0040000  
C 21.6100000   23.7500000   21.2530000  
O 22.3860000   24.7110000   21.2090000  
O 14.8900000   26.2040000   22.7640000  
O 14.2620000   23.6180000   22.3160000  
H 19.3060000   21.8960000   21.2170000  
H 21.1380000   22.0490000   21.0190000  
H 19.9860000   26.0310000   21.5530000  
H 13.9760000   25.7660000   22.6410000  
H 14.2850000   22.6550000   22.5830000  
H 17.3820000   26.9200000   22.2830000  
