76
010 
C 14.1280000   10.4330000   21.8470000  
C 14.7640000   10.1240000   23.1140000  
C 15.2700000   11.1410000   23.8900000  
C 15.2060000   12.4770000   23.6070000  
C 14.6550000   12.9060000   22.3990000  
C 14.0890000   11.9700000   21.3810000  
C 15.9250000   11.0870000   25.2270000  
C 16.2910000   12.3860000   25.5660000  
N 15.7950000   13.2300000   24.6250000  
O 17.4820000   11.8940000   27.5910000  
C 16.9990000   12.8570000   26.7410000  
O 17.1640000   14.0690000   26.8950000  
O 13.8020000   12.3030000   20.2950000  
O 13.7120000    9.6010000   21.0490000  
H 14.8320000    9.0450000   23.3060000  
H 16.1020000   10.2420000   25.8130000  
H 17.2670000   10.9750000   27.2650000  
H 15.9880000   14.1710000   24.4860000  
C 14.8250000   14.3420000   22.0600000  
C 16.0740000   14.9740000   21.8210000  
C 16.1440000   16.3220000   21.6270000  
C 15.0410000   17.1870000   21.6630000  
C 13.7850000   16.6360000   21.9400000  
C 13.7080000   15.2250000   22.1560000  
C 17.4580000   14.4850000   21.7980000  
C 18.2990000   15.6290000   21.7090000  
N 17.4740000   16.8000000   21.5000000  
O 20.2670000   14.4300000   22.2140000  
C 19.7410000   15.5970000   21.9130000  
O 20.4450000   16.6420000   21.9590000  
O 12.6790000   17.4160000   21.9470000  
O 12.4540000   14.6630000   22.1600000  
H 17.7850000   13.4910000   21.8360000  
H 19.7610000   13.6960000   21.7430000  
H 17.8390000   17.7380000   21.2580000  
H 12.9900000   18.2820000   21.8150000  
H 11.8440000   15.4320000   22.0530000  
C 15.1810000   18.6630000   21.4870000  
C 14.9200000   19.2330000   20.2000000  
C 15.1480000   20.5700000   20.0810000  
C 15.6090000   21.4200000   21.0880000  
C 15.8910000   20.8620000   22.3440000  
C 15.5860000   19.5250000   22.5700000  
C 14.6110000   18.7480000   18.9190000  
C 14.6350000   19.8710000   18.0610000  
N 14.9510000   21.0340000   18.7750000  
O 14.0280000   18.7110000   16.0580000  
C 14.2420000   19.9070000   16.6320000  
O 14.1170000   20.9630000   16.0080000  
O 16.5620000   21.6350000   23.3220000  
O 15.9300000   18.9770000   23.7930000  
H 14.4640000   17.6730000   18.7070000  
H 14.3030000   18.0730000   16.7150000  
H 14.8140000   22.0280000   18.5380000  
H 16.9280000   22.3880000   22.9670000  
H 15.8880000   18.0120000   23.6750000  
C 15.9080000   22.8780000   20.8040000  
C 15.2460000   23.9340000   21.3710000  
C 15.5310000   25.2400000   20.9920000  
C 16.6760000   25.5860000   20.2080000  
C 17.4460000   24.5180000   19.7090000  
C 17.0750000   23.1480000   20.0060000  
C 14.1090000   23.9600000   22.2200000  
C 13.6330000   25.3230000   22.1300000  
N 14.5250000   26.0900000   21.3840000  
O 11.5910000   25.0670000   23.4200000  
C 12.4450000   25.8840000   22.8140000  
O 12.3050000   27.0940000   22.8720000  
O 18.5300000   24.8020000   18.9180000  
O 17.8750000   22.1660000   19.5880000  
H 13.6290000   23.1810000   22.7490000  
H 11.8730000   24.1400000   23.2110000  
H 14.4810000   27.0700000   21.1340000  
H 18.3310000   25.6580000   18.6630000  
H 18.5170000   22.5610000   18.9640000  
H 17.0780000   26.5850000   20.0300000  
