76
010 
C 12.8460000   18.3640000   29.0180000  
C 14.0900000   18.3680000   29.7570000  
C 15.2310000   18.1170000   29.0220000  
C 15.3880000   18.0610000   27.6580000  
C 14.3250000   18.0520000   26.7840000  
C 12.9530000   18.2600000   27.4320000  
C 16.5560000   18.0880000   29.5450000  
C 17.5050000   17.8280000   28.5540000  
N 16.7200000   17.8590000   27.4110000  
O 19.4230000   17.7640000   29.8800000  
C 18.9360000   17.5020000   28.6730000  
O 19.6710000   17.0340000   27.8050000  
O 11.9430000   18.3900000   26.8340000  
O 11.7880000   18.5900000   29.6060000  
H 14.0060000   18.4590000   30.8350000  
H 16.8130000   18.2000000   30.5860000  
H 18.6350000   18.1740000   30.2940000  
H 17.0290000   17.6780000   26.5180000  
C 14.5990000   18.0050000   25.3470000  
C 14.6190000   16.8200000   24.5930000  
C 14.7740000   16.7930000   23.2790000  
C 15.0810000   17.9150000   22.5020000  
C 15.0590000   19.1590000   23.1950000  
C 14.8360000   19.2680000   24.6230000  
C 14.3730000   15.4200000   25.0080000  
C 14.3130000   14.6930000   23.8100000  
N 14.5220000   15.5160000   22.7170000  
O 14.2070000   12.7130000   25.1390000  
C 14.1470000   13.2630000   23.8950000  
O 14.1830000   12.6040000   22.8950000  
O 15.3070000   20.3690000   22.5210000  
O 14.8540000   20.4380000   25.2340000  
H 14.3440000   15.1060000   26.0670000  
H 14.3110000   13.4550000   25.7730000  
H 14.6510000   15.2250000   21.7880000  
H 15.4380000   20.1110000   21.5760000  
H 14.8600000   21.1580000   24.6050000  
C 15.3450000   17.8030000   21.0130000  
C 14.5460000   18.5620000   20.0410000  
C 14.9030000   18.4970000   18.7170000  
C 15.9210000   17.7190000   18.1510000  
C 16.6790000   17.0080000   19.0890000  
C 16.4610000   17.1190000   20.4720000  
C 13.3320000   19.3090000   20.1230000  
C 13.0400000   19.6510000   18.7820000  
N 14.0460000   19.1310000   17.9210000  
O 11.1480000   20.9450000   19.2310000  
C 11.9870000   20.5120000   18.2900000  
O 11.9290000   20.8370000   17.1520000  
O 17.7470000   16.2940000   18.6470000  
O 17.2830000   16.4020000   21.2810000  
H 12.8260000   19.5170000   21.0080000  
H 11.4970000   20.5050000   20.0190000  
H 14.0980000   19.2510000   16.9120000  
H 17.6780000   16.3140000   17.6160000  
H 18.0450000   16.0470000   20.7380000  
C 16.3170000   17.8460000   16.6650000  
C 16.8310000   19.0480000   16.1140000  
C 17.4670000   19.0810000   14.9000000  
C 17.4990000   17.9100000   14.0970000  
C 16.8360000   16.7190000   14.5020000  
C 16.3210000   16.7100000   15.8290000  
C 17.1070000   20.3670000   16.6820000  
C 17.7630000   21.1070000   15.7170000  
N 17.9680000   20.3060000   14.6050000  
O 17.8410000   23.1950000   16.8000000  
C 18.0970000   22.5250000   15.6860000  
O 18.5240000   23.1680000   14.7430000  
O 16.6700000   15.7220000   13.6600000  
O 15.9780000   15.4430000   16.3050000  
H 16.7180000   20.6540000   17.6320000  
H 17.7470000   22.5430000   17.5480000  
H 18.1570000   20.6290000   13.6730000  
H 17.1610000   15.9930000   12.8470000  
H 15.1290000   15.5190000   16.7010000  
H 18.0450000   18.0220000   13.1470000  
