76
010 
C 13.3700000   11.3190000   23.8030000  
C 14.4770000   10.3850000   23.6030000  
C 15.6840000   10.8650000   23.1910000  
C 15.8890000   12.2130000   22.9980000  
C 14.9610000   13.2000000   23.0860000  
C 13.6160000   12.8580000   23.6500000  
C 16.9390000   10.2210000   22.8370000  
C 17.8780000   11.2040000   22.4140000  
N 17.1670000   12.4180000   22.4480000  
O 19.7150000    9.7500000   22.0380000  
C 19.2990000   11.0300000   21.9980000  
O 20.0300000   11.8890000   21.5480000  
O 12.6860000   13.6300000   23.9210000  
O 12.3130000   10.9070000   24.2520000  
H 14.2170000    9.2970000   23.7370000  
H 17.2370000    9.1920000   22.8550000  
H 19.0380000    9.1920000   22.4650000  
H 17.4850000   13.2600000   22.0600000  
C 15.3530000   14.6030000   22.9370000  
C 15.5820000   15.1250000   21.6490000  
C 15.6530000   16.4650000   21.3330000  
C 15.7010000   17.4570000   22.3270000  
C 15.6150000   16.9690000   23.6500000  
C 15.4020000   15.5700000   23.9860000  
C 15.6720000   14.5030000   20.3290000  
C 15.8530000   15.5110000   19.3500000  
N 15.7600000   16.7480000   19.9820000  
O 16.2170000   14.0930000   17.4770000  
C 16.0770000   15.4050000   17.8860000  
O 16.1770000   16.3440000   17.1170000  
O 15.5950000   17.8440000   24.6730000  
O 15.2480000   15.1340000   25.2760000  
H 15.5420000   13.4810000   20.1870000  
H 16.0540000   13.5870000   18.2460000  
H 15.8230000   17.6630000   19.5280000  
H 15.7590000   18.7230000   24.2380000  
H 15.1720000   16.0010000   25.7120000  
C 15.8840000   18.8750000   21.9590000  
C 14.8570000   19.5840000   21.2670000  
C 15.0850000   20.7980000   20.7460000  
C 16.2370000   21.5910000   20.8970000  
C 17.1820000   20.9520000   21.7200000  
C 17.0290000   19.6300000   22.2110000  
C 13.5400000   19.2000000   20.8560000  
C 12.9830000   20.3110000   20.2090000  
N 13.9660000   21.3080000   20.0690000  
O 10.7500000   19.3210000   19.9170000  
C 11.5510000   20.4350000   19.8040000  
O 11.0910000   21.4600000   19.4180000  
O 18.1860000   21.7630000   22.1030000  
O 18.1050000   19.2240000   22.9580000  
H 13.0720000   18.2080000   21.1020000  
H 11.3380000   18.7400000   20.3950000  
H 13.9130000   22.2500000   19.7210000  
H 18.2480000   22.5220000   21.5380000  
H 18.7370000   19.9010000   23.2620000  
C 16.1700000   23.0720000   20.5390000  
C 15.7680000   23.9230000   21.5970000  
C 15.7620000   25.2610000   21.4940000  
C 16.1440000   26.0050000   20.3570000  
C 16.5620000   25.1860000   19.2530000  
C 16.6840000   23.7480000   19.3930000  
C 15.1950000   23.5950000   22.8520000  
C 14.8350000   24.7800000   23.4840000  
N 15.2520000   25.8090000   22.6130000  
O 13.7880000   23.7500000   25.2390000  
C 14.1460000   24.9080000   24.7360000  
O 13.7050000   25.8650000   25.2090000  
O 16.8850000   25.8710000   18.0770000  
O 17.1680000   23.0540000   18.3130000  
H 14.9040000   22.6450000   23.2030000  
H 13.9760000   23.0210000   24.6340000  
H 15.0000000   26.7660000   22.6700000  
H 16.9450000   26.8990000   18.0760000  
H 17.0840000   22.1220000   18.6250000  
H 16.0010000   27.1010000   20.2860000  
