76
010 
C 11.2100000   17.3240000   27.9840000  
C 12.1040000   17.9170000   29.0050000  
C 13.2570000   18.5450000   28.6010000  
C 13.6650000   18.5650000   27.2590000  
C 13.0120000   17.9900000   26.1910000  
C 11.7060000   17.3330000   26.4870000  
C 14.2470000   19.2140000   29.3690000  
C 15.2290000   19.6450000   28.4920000  
N 14.8880000   19.1720000   27.2230000  
O 16.4530000   20.9450000   29.9980000  
C 16.3910000   20.5300000   28.7410000  
O 17.1680000   20.8590000   27.8980000  
O 11.0960000   16.7600000   25.5950000  
O 10.2120000   16.7630000   28.3470000  
H 11.8700000   17.7300000   30.0590000  
H 14.2190000   19.3640000   30.4390000  
H 15.7760000   20.5270000   30.5280000  
H 15.3950000   19.4470000   26.3890000  
C 13.7260000   17.9360000   24.9230000  
C 14.6010000   16.8830000   24.6040000  
C 15.3210000   16.9100000   23.4450000  
C 15.2320000   17.8800000   22.4230000  
C 14.3070000   18.9880000   22.7410000  
C 13.6270000   19.0290000   24.0040000  
C 15.0170000   15.7300000   25.3560000  
C 15.9650000   15.0710000   24.5840000  
N 16.1200000   15.7750000   23.3650000  
O 16.6070000   13.2200000   25.9420000  
C 16.8200000   13.8610000   24.7950000  
O 17.5850000   13.3250000   24.0180000  
O 14.2490000   20.0590000   21.8900000  
O 12.7440000   20.0400000   24.2300000  
H 14.6120000   15.3380000   26.2540000  
H 15.8530000   13.8170000   26.2410000  
H 16.6660000   15.5180000   22.6200000  
H 14.9420000   19.9050000   21.1930000  
H 12.7080000   20.5580000   23.3790000  
C 15.9040000   17.8680000   21.1290000  
C 15.1130000   17.8660000   19.9940000  
C 15.7400000   17.8600000   18.7730000  
C 17.1640000   17.8710000   18.5730000  
C 17.9360000   17.9090000   19.7550000  
C 17.3710000   17.8600000   20.9960000  
C 13.7330000   17.5260000   19.7710000  
C 13.6030000   17.5670000   18.3530000  
N 14.8450000   17.7860000   17.7400000  
O 11.2980000   17.1860000   18.2570000  
C 12.3340000   17.5540000   17.5540000  
O 12.1570000   17.8700000   16.3930000  
O 19.2980000   18.0010000   19.6940000  
O 18.2140000   17.9160000   22.1170000  
H 13.0090000   17.4100000   20.6110000  
H 11.6450000   17.1770000   19.1800000  
H 15.0160000   17.9560000   16.7750000  
H 19.5620000   17.9040000   18.7370000  
H 19.0120000   17.4170000   21.7960000  
C 17.8030000   17.8900000   17.2380000  
C 17.6190000   19.0030000   16.3670000  
C 18.0670000   19.0420000   15.1000000  
C 18.6740000   17.8880000   14.5540000  
C 18.8760000   16.7000000   15.3550000  
C 18.4960000   16.7380000   16.7380000  
C 16.9680000   20.2880000   16.6730000  
C 17.0620000   21.0750000   15.5030000  
N 17.5420000   20.2050000   14.5000000  
O 16.5950000   23.1470000   16.6420000  
C 16.9260000   22.5320000   15.4580000  
O 17.3350000   23.1900000   14.5220000  
O 19.4620000   15.6180000   14.8320000  
O 18.7630000   15.6750000   17.5380000  
H 16.6460000   20.6130000   17.7080000  
H 16.3090000   22.4630000   17.2220000  
H 17.7050000   20.4610000   13.6080000  
H 19.9450000   15.7940000   14.0670000  
H 18.6240000   15.8890000   18.4400000  
H 18.9850000   17.8490000   13.4660000  
