76
010 
C  9.4530000   17.4670000   26.5050000  
C  8.7490000   16.3490000   25.8670000  
C  9.1830000   15.7930000   24.7210000  
C 10.2970000   16.2010000   23.9770000  
C 11.1060000   17.2940000   24.3940000  
C 10.6360000   18.0780000   25.5690000  
C  8.7850000   14.6440000   24.0270000  
C  9.5960000   14.4530000   22.8720000  
N 10.5220000   15.4240000   22.9030000  
O  8.7210000   12.3470000   22.2990000  
C  9.6430000   13.2790000   22.0150000  
O 10.4640000   13.1880000   21.1050000  
O 11.1640000   19.1140000   26.0060000  
O  9.2450000   17.8950000   27.6270000  
H  7.8190000   16.0150000   26.2800000  
H  7.9580000   14.0560000   24.2520000  
H  8.3390000   12.5480000   23.1990000  
H 11.2450000   15.5600000   22.2370000  
C 12.3610000   17.4970000   23.5820000  
C 12.2960000   18.0590000   22.2500000  
C 13.3980000   18.1900000   21.5380000  
C 14.7260000   17.9830000   22.0180000  
C 14.8030000   17.3260000   23.2830000  
C 13.6430000   17.0570000   24.0810000  
C 11.1740000   18.5480000   21.4490000  
C 11.7480000   19.0240000   20.2920000  
N 13.1280000   18.9090000   20.3520000  
O  9.7170000   19.7720000   19.2450000  
C 11.0660000   19.6950000   19.1610000  
O 11.6550000   20.0440000   18.1290000  
O 15.9500000   16.7960000   23.6880000  
O 13.7100000   16.4810000   25.2950000  
H 10.1540000   18.4980000   21.7020000  
H  9.5120000   19.3590000   20.1120000  
H 13.8050000   19.1860000   19.6330000  
H 16.5400000   16.8000000   22.8890000  
H 14.6360000   16.1710000   25.6220000  
C 15.9760000   18.2250000   21.2160000  
C 17.0280000   18.8780000   21.7700000  
C 18.2190000   19.1830000   21.0750000  
C 18.3790000   18.8810000   19.6660000  
C 17.3290000   18.1190000   19.0980000  
C 16.1590000   17.7520000   19.8480000  
C 17.1940000   19.5890000   23.0030000  
C 18.4030000   20.2970000   22.9480000  
N 19.1030000   20.0050000   21.7400000  
O 18.2490000   21.4350000   24.9930000  
C 19.0410000   21.2070000   23.9390000  
O 20.1380000   21.7380000   23.8190000  
O 17.4100000   17.7430000   17.7940000  
O 15.1540000   17.0240000   19.2650000  
H 16.4630000   19.7500000   23.8390000  
H 17.4240000   21.0770000   24.6270000  
H 20.0800000   20.1250000   21.5440000  
H 18.3210000   17.5310000   17.5330000  
H 15.6300000   16.6550000   18.5240000  
C 19.6570000   19.2730000   19.0420000  
C 20.9130000   18.8200000   19.5310000  
C 22.0910000   19.2640000   18.9970000  
C 22.0960000   20.2390000   18.0240000  
C 20.8960000   20.8340000   17.6070000  
C 19.6670000   20.3400000   18.0640000  
C 21.2400000   17.9030000   20.5680000  
C 22.6610000   17.8840000   20.7140000  
N 23.1760000   18.7710000   19.7270000  
O 22.8190000   16.4630000   22.5940000  
C 23.4880000   17.1950000   21.7530000  
O 24.6750000   17.3730000   21.7510000  
O 20.9250000   21.9490000   16.7840000  
O 18.4950000   20.9540000   17.7240000  
H 20.4910000   17.3270000   21.0950000  
H 21.9070000   16.3450000   22.2430000  
H 24.2030000   19.0220000   19.6030000  
H 20.1180000   22.4410000   16.8510000  
H 17.8940000   20.6010000   18.4470000  
H 23.1170000   20.6140000   17.7850000  
