76
010 
C 13.2210000   15.1140000   27.8800000  
C 12.7640000   16.1060000   28.9450000  
C 12.7550000   17.4520000   28.6570000  
C 13.1490000   17.9700000   27.4020000  
C 13.6870000   17.1370000   26.3640000  
C 13.7240000   15.6520000   26.5450000  
C 12.6080000   18.6400000   29.5430000  
C 12.9520000   19.7500000   28.7710000  
N 13.2920000   19.2930000   27.5080000  
O 12.7700000   21.1780000   30.6660000  
C 13.0800000   21.1100000   29.3380000  
O 13.4710000   22.0900000   28.7180000  
O 14.1010000   14.8150000   25.7710000  
O 13.1540000   13.9360000   28.1280000  
H 12.5650000   15.8070000   29.9680000  
H 12.3030000   18.6510000   30.6050000  
H 12.5750000   20.2180000   30.8720000  
H 13.5350000   19.9370000   26.7670000  
C 14.0200000   17.7810000   25.1160000  
C 15.4010000   17.6700000   24.7590000  
C 15.7400000   17.9640000   23.4770000  
C 14.8610000   18.4500000   22.5240000  
C 13.4800000   18.6010000   22.8860000  
C 13.0640000   18.3670000   24.2140000  
C 16.6750000   17.1910000   25.3910000  
C 17.6590000   17.2700000   24.3660000  
N 17.1450000   17.7810000   23.2290000  
O 19.4260000   16.2250000   25.6820000  
C 19.1140000   16.8560000   24.5490000  
O 19.9230000   17.0210000   23.6630000  
O 12.6330000   19.1150000   21.9290000  
O 11.7460000   18.4680000   24.5270000  
H 16.9100000   17.0970000   26.4930000  
H 18.5420000   16.0930000   26.0080000  
H 17.6330000   17.8630000   22.3000000  
H 13.1480000   19.2760000   21.0770000  
H 11.2600000   18.7440000   23.7120000  
C 15.4250000   18.7050000   21.1510000  
C 15.8200000   17.6450000   20.3290000  
C 16.2520000   17.8800000   19.0290000  
C 16.4330000   19.1750000   18.4470000  
C 15.9820000   20.3020000   19.2620000  
C 15.5470000   20.0670000   20.5910000  
C 15.9870000   16.1730000   20.4670000  
C 16.7020000   15.6860000   19.3560000  
N 16.8860000   16.7560000   18.4650000  
O 17.1870000   13.5970000   20.3490000  
C 17.2720000   14.3320000   19.2250000  
O 17.8040000   13.9750000   18.1850000  
O 16.0750000   21.5860000   18.8150000  
O 15.1670000   21.1280000   21.3950000  
H 15.7500000   15.6150000   21.3380000  
H 16.8840000   14.1170000   21.0980000  
H 17.3560000   16.8560000   17.6000000  
H 16.5080000   21.6670000   17.9280000  
H 15.0390000   20.8850000   22.3610000  
C 17.0570000   19.3540000   17.1150000  
C 16.4910000   18.9580000   15.8870000  
C 17.1870000   19.1740000   14.6750000  
C 18.5070000   19.7170000   14.6060000  
C 19.0910000   20.1060000   15.8330000  
C 18.3540000   19.9080000   17.0430000  
C 15.0780000   18.6180000   15.5490000  
C 15.0360000   18.5370000   14.1660000  
N 16.3570000   18.8540000   13.6950000  
O 13.0030000   17.4310000   14.0020000  
C 13.9740000   18.0530000   13.2470000  
O 14.0140000   18.2030000   12.0510000  
O 20.3660000   20.5520000   15.9040000  
O 18.9380000   20.3100000   18.1940000  
H 14.4080000   18.3810000   16.3200000  
H 13.2720000   17.6780000   14.8820000  
H 16.7340000   18.8700000   12.7210000  
H 20.8470000   20.4010000   15.0880000  
H 19.8620000   20.6260000   18.0950000  
H 18.8570000   19.9520000   13.6220000  
