76
010 
C 13.5830000   10.8080000   20.2510000  
C 12.0750000   10.9470000   20.4090000  
C 11.4620000   12.1720000   20.5450000  
C 12.1400000   13.3740000   20.4360000  
C 13.5580000   13.4280000   20.3570000  
C 14.3510000   12.1540000   20.4430000  
C 10.0770000   12.5630000   20.7730000  
C  9.9920000   13.9350000   20.7990000  
N 11.2890000   14.4390000   20.5600000  
O  7.7030000   14.0220000   21.4770000  
C  8.8260000   14.7650000   21.2150000  
O  8.7040000   15.9420000   21.2970000  
O 15.5960000   12.0940000   20.5920000  
O 14.2960000    9.8280000   20.0320000  
H 11.5580000   10.0330000   20.5970000  
H  9.2340000   11.8530000   20.8890000  
H  8.0150000   13.1980000   21.0930000  
H 11.5260000   15.4110000   20.4890000  
C 14.1840000   14.7910000   20.5470000  
C 14.8320000   15.0440000   21.7200000  
C 15.3290000   16.2590000   21.9310000  
C 15.3250000   17.3080000   21.0840000  
C 14.5900000   17.1220000   19.8670000  
C 14.1230000   15.7950000   19.6060000  
C 15.0870000   14.2260000   22.8510000  
C 15.8010000   15.0730000   23.7110000  
N 15.9890000   16.3390000   23.1130000  
O 16.0440000   13.5460000   25.4590000  
C 16.3930000   14.7160000   24.9910000  
O 17.1430000   15.4100000   25.6270000  
O 14.3950000   18.1610000   19.0100000  
O 13.5090000   15.5690000   18.3880000  
H 14.9030000   13.2020000   22.9870000  
H 15.5510000   13.0540000   24.7870000  
H 16.6910000   17.0400000   23.3840000  
H 14.8730000   18.9080000   19.2800000  
H 13.4030000   16.4300000   17.9060000  
C 15.8350000   18.6500000   21.4970000  
C 17.2170000   18.9040000   21.5780000  
C 17.8360000   20.0230000   22.1250000  
C 17.0200000   21.0600000   22.6280000  
C 15.5900000   20.8690000   22.5520000  
C 15.0460000   19.6600000   22.0540000  
C 18.3260000   18.1530000   20.9270000  
C 19.5110000   18.8530000   21.2130000  
N 19.1910000   20.0310000   21.9810000  
O 20.9650000   17.2300000   20.2740000  
C 20.9150000   18.4290000   20.8580000  
O 21.9370000   19.0760000   21.0520000  
O 14.6770000   21.6960000   23.1080000  
O 13.6390000   19.4300000   21.9940000  
H 18.2340000   17.1970000   20.3270000  
H 20.0590000   16.8670000   20.2570000  
H 19.8780000   20.7540000   22.1050000  
H 15.2090000   22.2120000   23.7700000  
H 13.1860000   20.2520000   22.2380000  
C 17.5870000   22.4230000   23.0890000  
C 17.2510000   23.6220000   22.4140000  
C 17.7820000   24.7780000   22.8190000  
C 18.6610000   24.9410000   23.9240000  
C 18.9530000   23.8400000   24.6730000  
C 18.4660000   22.5770000   24.2360000  
C 16.4380000   23.8970000   21.3030000  
C 16.5520000   25.2610000   20.9800000  
N 17.4940000   25.8020000   21.9090000  
O 14.8370000   25.2790000   19.3100000  
C 15.7390000   26.0110000   20.0430000  
O 15.8070000   27.1840000   19.9330000  
O 20.0140000   23.9090000   25.5400000  
O 18.8750000   21.4980000   24.9870000  
H 15.6460000   23.2910000   20.8830000  
H 14.9820000   24.2990000   19.4230000  
H 17.6830000   26.7540000   22.0920000  
H 20.2540000   22.9580000   25.8110000  
H 18.5460000   20.7060000   24.5700000  
H 19.1820000   25.9070000   24.0640000  
