76
010 
C 14.6570000   10.4240000   23.3410000  
C 14.3770000   10.0400000   21.8970000  
C 14.4420000   11.0280000   20.9410000  
C 14.6130000   12.3390000   21.1830000  
C 14.8900000   12.8950000   22.4140000  
C 14.8900000   11.9570000   23.6570000  
C 14.3740000   10.9330000   19.5480000  
C 14.5350000   12.2140000   18.9720000  
N 14.7490000   13.0460000   20.0200000  
O 14.8330000   11.7260000   16.6170000  
C 14.6870000   12.6370000   17.5460000  
O 14.6780000   13.8420000   17.3080000  
O 15.0760000   12.4030000   24.7450000  
O 14.7320000    9.6380000   24.2940000  
H 14.2150000    9.0320000   21.6390000  
H 14.3810000   10.0000000   19.0050000  
H 14.7020000   10.9190000   17.0900000  
H 14.9120000   14.0680000   19.9660000  
C 15.2110000   14.3530000   22.4500000  
C 14.2100000   15.3470000   22.3360000  
C 14.5100000   16.6590000   22.3640000  
C 15.8330000   17.1730000   22.5430000  
C 16.8690000   16.1860000   22.6980000  
C 16.5580000   14.7600000   22.6790000  
C 12.7770000   15.2000000   22.0180000  
C 12.3540000   16.5010000   21.7300000  
N 13.4550000   17.3920000   21.9210000  
O 10.1230000   16.0020000   21.3310000  
C 11.0090000   16.9540000   21.3280000  
O 10.7790000   18.1070000   20.9540000  
O 18.1800000   16.5640000   22.7740000  
O 17.6380000   13.8610000   22.7260000  
H 12.1530000   14.3400000   21.9670000  
H 10.6160000   15.1730000   21.6050000  
H 13.4200000   18.3630000   22.0000000  
H 18.3050000   17.5170000   22.6610000  
H 18.5310000   14.2620000   22.7950000  
C 16.1630000   18.5820000   22.2760000  
C 15.4460000   19.5620000   22.9810000  
C 15.6470000   20.8800000   22.5580000  
C 16.4090000   21.2900000   21.4440000  
C 17.1960000   20.3230000   20.8480000  
C 17.0970000   18.9870000   21.2500000  
C 14.3680000   19.5430000   23.8650000  
C 13.9130000   20.8620000   24.0170000  
N 14.7220000   21.7230000   23.2310000  
O 12.3010000   20.2250000   25.8010000  
C 12.8030000   21.2540000   25.0250000  
O 12.3580000   22.3830000   25.0640000  
O 17.9720000   20.6220000   19.7590000  
O 17.7510000   18.0240000   20.4620000  
H 14.0350000   18.6760000   24.4640000  
H 12.7680000   19.4420000   25.4430000  
H 14.6090000   22.7070000   23.0470000  
H 17.7830000   21.4940000   19.5130000  
H 18.3690000   18.4850000   19.8470000  
C 16.5050000   22.7310000   21.0060000  
C 17.6050000   23.5120000   21.3520000  
C 17.6710000   24.8420000   21.0440000  
C 16.6600000   25.4990000   20.3190000  
C 15.4720000   24.8080000   19.9640000  
C 15.4280000   23.4320000   20.2390000  
C 18.9050000   23.0980000   21.7990000  
C 19.5990000   24.2620000   21.9570000  
N 18.9270000   25.3250000   21.4020000  
O 21.3100000   23.1110000   23.0270000  
C 20.8890000   24.3020000   22.5870000  
O 21.6250000   25.3110000   22.7970000  
O 14.4650000   25.4640000   19.2780000  
O 14.3270000   22.7350000   19.8280000  
H 19.1880000   22.0980000   22.0070000  
H 20.5600000   22.4560000   23.0780000  
H 19.1690000   26.2750000   21.3600000  
H 13.7200000   24.9250000   19.3920000  
H 14.3300000   21.7940000   20.1390000  
H 16.7710000   26.5540000   20.1340000  
