76
010 
C 10.0070000   19.0000000   26.8790000  
C  9.4940000   17.5770000   27.0510000  
C 10.1200000   16.5730000   26.3420000  
C 11.2440000   16.7610000   25.5610000  
C 11.8140000   17.9560000   25.4060000  
C 11.2300000   19.1940000   25.9410000  
C  9.9020000   15.1440000   26.3910000  
C 10.8850000   14.5210000   25.6110000  
N 11.7010000   15.5280000   25.1030000  
O  9.9670000   12.3380000   25.6830000  
C 11.0720000   13.0780000   25.4320000  
O 12.1160000   12.5200000   25.0850000  
O 11.6740000   20.2700000   25.6290000  
O  9.4290000   19.9050000   27.5460000  
H  8.6720000   17.3850000   27.7480000  
H  9.1220000   14.5810000   26.9750000  
H  9.3030000   12.9380000   26.0130000  
H 12.6040000   15.4090000   24.6720000  
C 12.9440000   17.8860000   24.4220000  
C 12.7710000   18.4240000   23.1500000  
C 13.7770000   18.3140000   22.1950000  
C 15.0730000   17.9250000   22.5760000  
C 15.3440000   17.5550000   23.9470000  
C 14.2650000   17.4720000   24.7990000  
C 11.6280000   18.9710000   22.4670000  
C 12.0110000   19.0980000   21.1320000  
N 13.3730000   18.6770000   20.9880000  
O  9.9370000   19.8460000   20.2170000  
C 11.2080000   19.6090000   19.9160000  
O 11.6900000   19.6550000   18.8200000  
O 16.6320000   17.0940000   24.3220000  
O 14.4020000   16.9710000   26.0850000  
H 10.6310000   19.2790000   22.8400000  
H  9.8580000   19.4540000   21.1250000  
H 13.9560000   18.7730000   20.1890000  
H 17.2140000   17.1760000   23.5780000  
H 15.3590000   16.6720000   26.1600000  
C 16.1830000   17.9810000   21.5850000  
C 16.6030000   19.2090000   21.0460000  
C 17.4920000   19.2400000   20.0260000  
C 18.1540000   18.1340000   19.4640000  
C 17.9170000   16.9140000   20.1730000  
C 16.8110000   16.8040000   21.1270000  
C 16.0920000   20.5550000   21.2210000  
C 16.7270000   21.3520000   20.3010000  
N 17.6140000   20.5510000   19.5230000  
O 15.6300000   23.3260000   21.0350000  
C 16.4530000   22.7880000   20.0750000  
O 16.9730000   23.5090000   19.2060000  
O 18.5240000   15.6920000   19.8680000  
O 16.4870000   15.5750000   21.6110000  
H 15.3940000   20.8930000   22.0290000  
H 15.3000000   22.5440000   21.5160000  
H 18.1230000   20.8560000   18.6510000  
H 18.7590000   15.8320000   18.9240000  
H 16.1050000   15.6080000   22.4950000  
C 19.0660000   18.2670000   18.2820000  
C 20.4760000   18.1630000   18.3740000  
C 21.3220000   18.3830000   17.3710000  
C 20.8740000   18.5880000   16.0540000  
C 19.4700000   18.6630000   15.8570000  
C 18.5980000   18.6220000   16.9470000  
C 21.2320000   17.9030000   19.5890000  
C 22.5650000   17.9370000   19.2340000  
N 22.5860000   18.1880000   17.8630000  
O 23.4920000   17.2910000   21.4610000  
C 23.7930000   17.6770000   20.1790000  
O 24.9280000   17.8420000   19.7980000  
O 18.9420000   19.0560000   14.7140000  
O 17.2370000   18.6720000   16.7530000  
H 20.8560000   17.8390000   20.6020000  
H 22.5260000   17.2110000   21.5450000  
H 23.4520000   18.1590000   17.2920000  
H 17.9910000   19.2630000   14.8990000  
H 16.7840000   18.4030000   17.5900000  
H 21.5360000   18.7790000   15.1640000  
