76
010 
C 10.6000000   17.4580000   27.4170000  
C  9.4550000   16.7910000   26.8140000  
C  9.5150000   16.2400000   25.5540000  
C 10.6130000   16.4750000   24.7230000  
C 11.6840000   17.2500000   25.0750000  
C 11.8160000   17.8060000   26.3870000  
C  8.4190000   15.8050000   24.6520000  
C  8.9660000   15.5470000   23.4150000  
N 10.3600000   15.9230000   23.4610000  
O  6.9680000   15.1480000   22.4390000  
C  8.2880000   15.1580000   22.1920000  
O  8.7310000   14.8780000   21.1010000  
O 12.6670000   18.6350000   26.7480000  
O 10.5850000   17.8290000   28.5900000  
H  8.5960000   16.6280000   27.3890000  
H  7.3700000   15.6580000   25.0200000  
H  6.8380000   15.0520000   23.3770000  
H 10.9770000   15.7750000   22.7320000  
C 12.6900000   17.3880000   24.0030000  
C 12.8610000   18.6750000   23.3730000  
C 13.8090000   18.8730000   22.4410000  
C 14.8550000   17.9190000   22.1230000  
C 14.6510000   16.6240000   22.6840000  
C 13.5540000   16.3570000   23.5910000  
C 12.3120000   19.9270000   23.7520000  
C 13.1430000   20.9040000   23.2180000  
N 13.9810000   20.2560000   22.3420000  
O 12.2540000   22.6380000   24.5500000  
C 12.9990000   22.3600000   23.5110000  
O 13.4680000   23.2310000   22.8850000  
O 15.5770000   15.6370000   22.4570000  
O 13.3930000   15.0760000   24.0160000  
H 11.5720000   20.0390000   24.5210000  
H 12.0510000   21.7610000   24.7570000  
H 14.5280000   20.5850000   21.5810000  
H 16.3000000   16.0270000   21.9390000  
H 14.1370000   14.5820000   23.6630000  
C 16.0270000   18.3610000   21.2740000  
C 17.3450000   18.0250000   21.6620000  
C 18.4270000   18.4170000   20.9380000  
C 18.3330000   19.1930000   19.7710000  
C 17.0080000   19.6050000   19.3700000  
C 15.8690000   19.0810000   20.0410000  
C 17.8460000   17.3490000   22.8040000  
C 19.2290000   17.3710000   22.7000000  
N 19.5700000   18.0030000   21.4880000  
O 19.8190000   16.6040000   24.9280000  
C 20.2710000   17.0320000   23.7480000  
O 21.4490000   17.0830000   23.5300000  
O 16.8700000   20.3640000   18.2250000  
O 14.6410000   19.4530000   19.5850000  
H 17.1900000   16.9720000   23.6170000  
H 18.8450000   16.4300000   24.8210000  
H 20.5480000   18.2040000   21.1890000  
H 17.8200000   20.5720000   18.0320000  
H 14.7790000   20.0520000   18.8150000  
C 19.4660000   19.5740000   18.9670000  
C 20.1190000   18.5780000   18.0700000  
C 21.1890000   18.9080000   17.2180000  
C 21.5780000   20.2650000   17.0540000  
C 21.0040000   21.2090000   17.9260000  
C 20.0920000   20.8840000   18.9450000  
C 19.7190000   17.2130000   17.7340000  
C 20.5150000   16.8320000   16.6740000  
N 21.3160000   17.8830000   16.2950000  
O 19.4550000   14.6980000   16.4300000  
C 20.4580000   15.5280000   16.0090000  
O 21.1130000   15.2230000   15.0420000  
O 21.3870000   22.5170000   17.8000000  
O 19.6240000   21.8890000   19.7770000  
H 19.0680000   16.5300000   18.2920000  
H 19.0940000   15.0050000   17.2650000  
H 22.0490000   17.8730000   15.5440000  
H 20.7570000   23.0120000   18.4070000  
H 19.0510000   21.5130000   20.4480000  
H 22.2490000   20.6950000   16.3440000  
