76
010 
C  9.6220000   17.2200000   26.5680000  
C  8.9040000   16.2310000   25.7890000  
C  9.3960000   15.6760000   24.5910000  
C 10.6440000   16.0810000   24.1770000  
C 11.4460000   17.0470000   24.8090000  
C 10.9390000   17.8160000   25.9420000  
C  8.9000000   14.7280000   23.6340000  
C  9.8890000   14.5830000   22.6860000  
N 10.9230000   15.4300000   23.0350000  
O  9.0870000   12.8950000   21.1630000  
C 10.0360000   13.8580000   21.3860000  
O 10.9060000   14.1010000   20.5720000  
O 11.3990000   18.8420000   26.4220000  
O  9.1830000   17.7160000   27.6130000  
H  7.9260000   15.9610000   26.2920000  
H  7.9220000   14.3180000   23.6630000  
H  8.6590000   12.7080000   22.0310000  
H 11.8160000   15.4690000   22.6160000  
C 12.6090000   17.4960000   24.0750000  
C 12.3880000   18.4750000   23.0580000  
C 13.4720000   18.7670000   22.2700000  
C 14.7650000   18.1070000   22.3650000  
C 14.9740000   17.1770000   23.4300000  
C 13.8350000   16.8280000   24.1900000  
C 11.3490000   19.3860000   22.6150000  
C 11.8930000   20.2710000   21.6760000  
N 13.1960000   19.7670000   21.3660000  
O 10.0300000   21.6120000   21.4220000  
C 11.2320000   21.3530000   20.8960000  
O 11.6980000   21.9610000   20.0080000  
O 16.1760000   16.5490000   23.5400000  
O 13.9040000   15.8980000   25.1940000  
H 10.3710000   19.4350000   22.9970000  
H 10.1780000   21.0520000   22.1730000  
H 13.7270000   20.1210000   20.5800000  
H 16.8890000   17.0370000   23.0880000  
H 14.8640000   15.5820000   25.3170000  
C 15.9200000   18.4170000   21.4590000  
C 16.9220000   19.2910000   21.9360000  
C 18.0720000   19.4690000   21.1950000  
C 18.3990000   18.9450000   19.9230000  
C 17.3650000   18.1370000   19.4100000  
C 16.1620000   17.7900000   20.1570000  
C 17.1600000   19.9700000   23.1630000  
C 18.4260000   20.5500000   23.1010000  
N 18.9680000   20.2160000   21.8880000  
O 18.3170000   21.6940000   25.1310000  
C 19.0950000   21.3790000   24.1040000  
O 20.2470000   21.7970000   24.0890000  
O 17.4090000   17.7500000   18.0700000  
O 15.2390000   16.9580000   19.6440000  
H 16.4440000   19.9860000   23.9640000  
H 17.4900000   21.1770000   24.9420000  
H 19.9230000   20.3590000   21.6700000  
H 18.3310000   17.9290000   17.8540000  
H 15.4930000   16.8780000   18.7050000  
C 19.6370000   19.2150000   19.2250000  
C 20.6410000   18.2700000   18.8600000  
C 21.6870000   18.6010000   18.0520000  
C 21.8890000   19.9700000   17.6660000  
C 20.9180000   20.9600000   18.0390000  
C 19.8340000   20.6010000   18.8180000  
C 20.7030000   16.8830000   19.1800000  
C 21.8840000   16.4340000   18.6580000  
N 22.5010000   17.4760000   18.0040000  
O 21.5450000   14.1470000   19.3740000  
C 22.3690000   15.0180000   18.7490000  
O 23.4480000   14.6670000   18.3250000  
O 21.0940000   22.2240000   17.7160000  
O 18.9040000   21.5300000   19.1840000  
H 19.9430000   16.3220000   19.7320000  
H 20.8630000   14.6600000   19.8690000  
H 23.4650000   17.3530000   17.6230000  
H 20.2690000   22.6700000   17.8520000  
H 18.2350000   20.9760000   19.6390000  
H 22.8070000   20.2130000   17.1200000  
