76
010 
C  9.9960000   17.6150000   26.8850000  
C  9.0930000   16.5180000   26.3150000  
C  9.3550000   16.0020000   25.0670000  
C 10.4770000   16.2750000   24.2600000  
C 11.4340000   17.1880000   24.6700000  
C 11.1900000   18.0220000   25.9500000  
C  8.6180000   15.0640000   24.2990000  
C  9.2660000   14.7170000   23.1230000  
N 10.4460000   15.4800000   23.1660000  
O  7.8340000   13.0620000   22.4090000  
C  8.8490000   13.8650000   22.0610000  
O  9.3470000   13.8630000   20.9440000  
O 11.8240000   19.0420000   26.1610000  
O  9.7990000   18.2450000   27.8680000  
H  8.1790000   16.2280000   26.7570000  
H  7.6460000   14.6040000   24.5440000  
H  7.4310000   13.3720000   23.2170000  
H 11.1670000   15.4210000   22.4590000  
C 12.5910000   17.4200000   23.8550000  
C 12.7660000   18.6060000   23.1300000  
C 13.8180000   18.7820000   22.3110000  
C 14.9270000   17.8650000   22.2380000  
C 14.7880000   16.6630000   23.0370000  
C 13.5810000   16.4560000   23.8050000  
C 11.9630000   19.8640000   23.0990000  
C 12.6980000   20.7080000   22.3420000  
N 13.8720000   20.1150000   21.8310000  
O 11.2650000   22.7090000   22.8180000  
C 12.4750000   22.2210000   22.2870000  
O 13.2130000   23.0580000   21.7700000  
O 15.7760000   15.7250000   22.9990000  
O 13.5480000   15.3290000   24.6300000  
H 11.1880000   20.1660000   23.7030000  
H 10.8020000   21.9800000   23.1400000  
H 14.5550000   20.6140000   21.2620000  
H 16.5420000   16.2010000   22.7180000  
H 14.2230000   14.6890000   24.3420000  
C 16.0510000   18.2120000   21.3580000  
C 17.3510000   18.4530000   21.9450000  
C 18.4350000   18.8510000   21.1930000  
C 18.3430000   18.9740000   19.8260000  
C 17.0640000   18.8980000   19.2040000  
C 15.9320000   18.4550000   19.9870000  
C 17.8610000   18.5120000   23.3420000  
C 19.1850000   18.9550000   23.2990000  
N 19.5330000   19.2650000   21.9690000  
O 19.4380000   19.0590000   25.6520000  
C 19.9860000   19.3850000   24.4940000  
O 20.9810000   20.0710000   24.4000000  
O 16.9770000   19.0730000   17.8500000  
O 14.7490000   18.2870000   19.3880000  
H 17.3600000   18.2480000   24.3050000  
H 18.5850000   18.5930000   25.4810000  
H 20.3250000   19.7580000   21.6080000  
H 17.8750000   18.9960000   17.4830000  
H 14.8260000   18.4780000   18.4280000  
C 19.5560000   19.4790000   19.0410000  
C 20.2730000   18.4940000   18.3220000  
C 21.3850000   18.8690000   17.5750000  
C 21.6360000   20.2480000   17.3320000  
C 20.8350000   21.2230000   18.0050000  
C 19.8150000   20.8290000   18.8760000  
C 20.1160000   17.0880000   18.2380000  
C 21.2170000   16.5980000   17.4640000  
N 21.9660000   17.6950000   16.9850000  
O 20.3880000   14.3780000   17.4790000  
C 21.4160000   15.1380000   17.0620000  
O 22.3500000   14.7560000   16.4180000  
O 21.2410000   22.5440000   17.9150000  
O 19.0450000   21.7120000   19.5170000  
H 19.2280000   16.5650000   18.5800000  
H 19.8990000   15.1200000   17.8720000  
H 22.8480000   17.5960000   16.5270000  
H 20.5470000   23.0150000   18.4290000  
H 18.2050000   21.3020000   19.7370000  
H 22.3730000   20.6470000   16.5950000  
