76
010 
C 15.7100000   10.5010000   21.6220000  
C 15.5090000   10.1040000   23.0570000  
C 15.4250000   11.1050000   23.9440000  
C 15.4920000   12.4520000   23.6450000  
C 15.6870000   12.9710000   22.3900000  
C 15.7090000   11.9660000   21.2540000  
C 15.0540000   10.9850000   25.2870000  
C 14.8750000   12.2800000   25.7920000  
N 15.1400000   13.1390000   24.7610000  
O 14.3340000   11.6760000   28.0730000  
C 14.5500000   12.6810000   27.1770000  
O 14.4120000   13.8580000   27.5180000  
O 15.6980000   12.3910000   20.0830000  
O 15.8040000    9.6350000   20.7220000  
H 15.3690000    9.0230000   23.2870000  
H 14.8400000   10.0550000   25.8020000  
H 14.4640000   10.8110000   27.5770000  
H 15.0110000   14.1700000   24.9130000  
C 15.7220000   14.4330000   22.2650000  
C 16.8040000   15.2570000   22.5380000  
C 16.7140000   16.6230000   22.3760000  
C 15.6200000   17.2800000   21.8130000  
C 14.5190000   16.4830000   21.6010000  
C 14.5600000   15.1050000   21.8640000  
C 18.1440000   14.9820000   22.9870000  
C 18.8240000   16.2420000   22.9440000  
N 17.9260000   17.2070000   22.5120000  
O 20.8550000   15.3100000   23.7110000  
C 20.2290000   16.4510000   23.3530000  
O 20.7750000   17.5170000   23.3520000  
O 13.4570000   17.0020000   20.9580000  
O 13.4020000   14.4370000   21.6940000  
H 18.5290000   14.0410000   23.2740000  
H 20.3970000   14.5130000   23.2660000  
H 18.1080000   18.0850000   22.0470000  
H 13.8450000   17.8110000   20.4320000  
H 12.7340000   15.1240000   21.9310000  
C 15.6760000   18.7710000   21.4560000  
C 15.6240000   19.2090000   20.1070000  
C 15.5780000   20.5330000   19.8260000  
C 15.5820000   21.5840000   20.8900000  
C 15.5970000   21.1100000   22.2660000  
C 15.7410000   19.7430000   22.5090000  
C 15.6310000   18.4980000   18.8300000  
C 15.4780000   19.4690000   17.8540000  
N 15.4500000   20.7600000   18.4600000  
O 15.7830000   17.8910000   16.0340000  
C 15.5610000   19.1670000   16.4140000  
O 15.4300000   20.0360000   15.5350000  
O 15.4310000   22.0840000   23.3110000  
O 15.7750000   19.3860000   23.8010000  
H 15.6710000   17.4010000   18.6510000  
H 15.7490000   17.3860000   16.8910000  
H 15.4330000   21.7160000   18.0460000  
H 14.9930000   22.8590000   22.9080000  
H 16.2470000   18.5430000   23.9800000  
C 15.5420000   23.0620000   20.4970000  
C 14.4520000   23.8800000   20.8620000  
C 14.4630000   25.1940000   20.4550000  
C 15.5820000   25.8250000   19.9560000  
C 16.7080000   25.0620000   19.6540000  
C 16.6650000   23.6760000   19.8330000  
C 13.1460000   23.6410000   21.5570000  
C 12.4100000   24.8240000   21.4670000  
N 13.2520000   25.7330000   20.8560000  
O 10.5000000   24.0470000   22.5470000  
C 11.0640000   25.0210000   21.9080000  
O 10.4370000   26.0190000   21.7910000  
O 17.7900000   25.6600000   19.0590000  
O 17.6990000   22.8690000   19.4830000  
H 12.7710000   22.7640000   22.0210000  
H 10.9830000   23.2570000   22.2340000  
H 12.9950000   26.6270000   20.5330000  
H 17.7380000   26.6340000   18.8720000  
H 18.3820000   23.4690000   19.0820000  
H 15.7050000   26.8980000   19.7880000  
