76
010 
C 14.1810000   18.8660000   29.4120000  
C 15.2210000   18.0010000   29.8830000  
C 15.9490000   17.3390000   28.9420000  
C 15.8010000   17.4890000   27.5750000  
C 14.9560000   18.3080000   26.9220000  
C 13.9800000   19.0690000   27.8350000  
C 16.9660000   16.3110000   29.1860000  
C 17.3970000   15.9790000   27.8980000  
N 16.7250000   16.7760000   26.9710000  
O 18.8050000   14.3260000   28.8460000  
C 18.4530000   14.9140000   27.7070000  
O 18.9140000   14.5520000   26.6150000  
O 13.0940000   19.7830000   27.3770000  
O 13.3610000   19.3300000   30.1220000  
H 15.3240000   18.0090000   30.9520000  
H 17.1290000   15.8950000   30.1770000  
H 18.3710000   14.8330000   29.5450000  
H 16.8800000   16.7100000   25.9860000  
C 15.0540000   18.3920000   25.4630000  
C 14.5840000   17.3050000   24.6970000  
C 14.8860000   17.2650000   23.3370000  
C 15.5130000   18.2280000   22.5720000  
C 16.0150000   19.3200000   23.3370000  
C 15.8230000   19.3630000   24.7530000  
C 14.0420000   16.0680000   25.0240000  
C 13.9060000   15.3660000   23.8360000  
N 14.4470000   16.1220000   22.7910000  
O 12.9940000   13.4600000   24.8390000  
C 13.3690000   13.9840000   23.6900000  
O 13.2710000   13.4220000   22.6090000  
O 16.5520000   20.4670000   22.7590000  
O 16.3010000   20.3710000   25.4930000  
H 13.9650000   15.5500000   26.0170000  
H 12.9740000   14.2480000   25.3950000  
H 14.4550000   16.0000000   21.7610000  
H 16.3640000   20.5940000   21.8020000  
H 16.8190000   20.8980000   24.9540000  
C 15.6930000   18.1930000   21.0460000  
C 14.9890000   19.0620000   20.2180000  
C 15.0570000   18.9660000   18.8890000  
C 15.8660000   17.9650000   18.2280000  
C 16.6310000   17.1170000   19.0500000  
C 16.4700000   17.1790000   20.4410000  
C 13.9550000   20.0510000   20.5430000  
C 13.5040000   20.4720000   19.3080000  
N 14.2070000   19.8380000   18.3040000  
O 11.8420000   21.8580000   20.2580000  
C 12.4790000   21.5260000   19.1180000  
O 12.1280000   22.1440000   18.0890000  
O 17.4870000   16.2230000   18.5690000  
O 17.1760000   16.3220000   21.2380000  
H 13.5640000   20.2450000   21.4760000  
H 12.2330000   21.3230000   20.9300000  
H 14.2220000   20.1650000   17.3280000  
H 17.4830000   16.3780000   17.6160000  
H 17.7440000   15.7400000   20.7610000  
C 15.9460000   17.8490000   16.7300000  
C 16.5730000   18.8460000   15.9730000  
C 16.6170000   18.8470000   14.5890000  
C 16.1660000   17.7540000   13.9030000  
C 15.6190000   16.6490000   14.6170000  
C 15.3680000   16.7500000   16.0130000  
C 16.9640000   20.1280000   16.4310000  
C 17.1820000   20.9280000   15.2890000  
N 17.1240000   20.0430000   14.1680000  
O 17.7810000   22.9720000   16.4650000  
C 17.5920000   22.3870000   15.2490000  
O 17.8140000   23.0610000   14.2750000  
O 15.1890000   15.5300000   13.9370000  
O 14.5390000   15.7700000   16.5160000  
H 16.9100000   20.5300000   17.4430000  
H 17.7290000   22.2300000   17.1280000  
H 17.2540000   20.3720000   13.2060000  
H 15.1850000   15.6650000   13.0090000  
H 14.4770000   15.8580000   17.4550000  
H 16.4030000   17.6570000   12.7960000  
