76
010 
C  9.1730000   19.2050000   24.8040000  
C  8.6730000   18.0910000   25.6010000  
C  9.4470000   16.9330000   25.6290000  
C 10.6640000   16.8150000   25.0190000  
C 11.3450000   17.8340000   24.4540000  
C 10.5840000   19.0400000   24.1980000  
C  9.2100000   15.6380000   26.2140000  
C 10.2870000   14.7550000   25.9850000  
N 11.2210000   15.5670000   25.3420000  
O  9.5380000   12.7970000   27.0400000  
C 10.5430000   13.3110000   26.3490000  
O 11.5460000   12.7010000   25.9790000  
O 11.0390000   19.8990000   23.4890000  
O  8.5950000   20.2800000   24.4340000  
H  7.6640000   18.1810000   25.9800000  
H  8.2620000   15.4070000   26.8040000  
H  8.9660000   13.5260000   27.0140000  
H 12.2090000   15.3600000   25.1810000  
C 12.6000000   17.4700000   23.8080000  
C 12.6700000   17.3650000   22.3970000  
C 13.8660000   17.2680000   21.7510000  
C 15.1130000   17.2260000   22.3640000  
C 15.0210000   17.4430000   23.8330000  
C 13.7760000   17.5650000   24.5130000  
C 11.6970000   17.4220000   21.3490000  
C 12.3740000   17.1240000   20.1560000  
N 13.7290000   16.8550000   20.4230000  
O 10.5420000   17.5010000   18.6420000  
C 11.8030000   17.1720000   18.7590000  
O 12.4850000   17.0390000   17.7350000  
O 16.2370000   17.5600000   24.5220000  
O 13.8980000   17.7760000   25.8890000  
H 10.6090000   17.6200000   21.4910000  
H 10.1730000   17.5050000   19.5530000  
H 14.4970000   16.6300000   19.8080000  
H 16.9230000   17.4190000   23.8540000  
H 14.7920000   17.7210000   26.1790000  
C 16.3010000   17.3670000   21.5790000  
C 16.4140000   18.4050000   20.6870000  
C 17.6260000   18.6070000   20.0810000  
C 18.8180000   17.9080000   20.2350000  
C 18.7920000   16.8980000   21.2170000  
C 17.5420000   16.6280000   21.9020000  
C 15.5430000   19.4290000   20.1640000  
C 16.2700000   20.2120000   19.2630000  
N 17.5570000   19.6550000   19.2260000  
O 14.5220000   21.7550000   18.8350000  
C 15.7580000   21.3420000   18.5500000  
O 16.5080000   21.9740000   17.8770000  
O 19.9530000   16.2030000   21.6490000  
O 17.4460000   15.6000000   22.7280000  
H 14.5000000   19.5590000   20.3030000  
H 14.1490000   21.2150000   19.5100000  
H 18.2550000   20.0190000   18.5390000  
H 20.6670000   16.4400000   21.0460000  
H 16.5340000   15.4260000   22.8480000  
C 20.0220000   18.2870000   19.4300000  
C 20.8280000   19.4910000   19.6990000  
C 22.0400000   19.6830000   19.1430000  
C 22.5940000   18.8270000   18.2180000  
C 21.8020000   17.7080000   17.8780000  
C 20.5740000   17.4400000   18.4360000  
C 20.6440000   20.6180000   20.5910000  
C 21.7460000   21.4360000   20.4690000  
N 22.5940000   20.8840000   19.5060000  
O 20.9150000   23.0750000   21.8730000  
C 21.9900000   22.6670000   21.1960000  
O 22.9150000   23.4680000   21.0990000  
O 22.2990000   16.8480000   16.9310000  
O 19.9690000   16.2230000   18.1640000  
H 19.8560000   20.6700000   21.3870000  
H 20.3020000   22.3660000   21.7800000  
H 23.4330000   21.3370000   19.1880000  
H 21.7700000   15.9930000   16.9470000  
H 19.0090000   16.3970000   18.1920000  
H 23.4780000   19.1150000   17.6830000  
