76
010 
C 20.1800000   13.1490000   25.2680000  
C 19.2750000   12.3580000   26.1420000  
C 17.8850000   12.6080000   26.0950000  
C 17.3440000   13.6450000   25.3020000  
C 18.0810000   14.4930000   24.4690000  
C 19.5160000   14.2860000   24.3490000  
C 16.7950000   12.0470000   26.7950000  
C 15.5980000   12.7110000   26.3850000  
N 16.0150000   13.6450000   25.4700000  
O 14.1230000   11.5100000   27.7460000  
C 14.2220000   12.3590000   26.7930000  
O 13.2410000   12.8620000   26.2630000  
O 20.2740000   14.9820000   23.6660000  
O 21.3930000   13.0030000   25.3460000  
H 19.7550000   11.4770000   26.6910000  
H 16.9150000   11.1690000   27.3980000  
H 15.0630000   11.3540000   28.0240000  
H 15.4040000   14.3380000   25.1060000  
C 17.3990000   15.5620000   23.6830000  
C 16.7370000   16.6160000   24.3580000  
C 16.1580000   17.6050000   23.6700000  
C 16.0720000   17.7130000   22.2620000  
C 16.6320000   16.6170000   21.5840000  
C 17.2740000   15.5150000   22.2950000  
C 16.5620000   16.8940000   25.8070000  
C 15.7400000   18.0380000   25.8500000  
N 15.4880000   18.4490000   24.4990000  
O 15.4490000   17.9910000   28.2630000  
C 15.2990000   18.7270000   27.1010000  
O 14.6950000   19.7670000   27.0040000  
O 16.6120000   16.6110000   20.1930000  
O 17.7780000   14.5550000   21.4640000  
H 17.0690000   16.3570000   26.6070000  
H 15.7110000   17.1140000   27.9890000  
H 15.0330000   19.2400000   24.2920000  
H 16.6030000   17.5360000   20.0410000  
H 17.5000000   14.6470000   20.5400000  
C 15.3530000   18.7950000   21.4450000  
C 16.0100000   19.5280000   20.3120000  
C 15.3220000   20.4440000   19.5540000  
C 14.0470000   20.8570000   19.8500000  
C 13.3700000   20.2240000   20.9410000  
C 13.9570000   19.1600000   21.6750000  
C 17.4410000   19.6830000   19.8370000  
C 17.4070000   20.5420000   18.7190000  
N 16.0750000   21.0090000   18.5620000  
O 19.7200000   20.6410000   18.6140000  
C 18.5950000   21.1870000   18.1720000  
O 18.5960000   22.1200000   17.3580000  
O 12.1290000   20.5510000   21.2070000  
O 13.2430000   18.4910000   22.5980000  
H 18.2500000   19.2870000   20.4230000  
H 19.5150000   19.7650000   18.9170000  
H 15.7330000   21.7410000   17.9140000  
H 11.8180000   21.2400000   20.5090000  
H 12.3970000   18.9980000   22.7100000  
C 13.3640000   21.8460000   18.9760000  
C 12.7680000   21.5000000   17.7500000  
C 12.3220000   22.4710000   16.8470000  
C 12.4750000   23.8520000   17.1360000  
C 12.9420000   24.1780000   18.4430000  
C 13.3840000   23.1640000   19.3730000  
C 12.5830000   20.2210000   17.1510000  
C 12.1860000   20.4830000   15.8380000  
N 11.9640000   21.8590000   15.6480000  
O 12.5090000   18.2870000   15.0310000  
C 11.9340000   19.4360000   14.8660000  
O 11.3770000   19.5900000   13.8030000  
O 12.9750000   25.5180000   18.7630000  
O 13.9030000   23.4760000   20.6250000  
H 12.5830000   19.3160000   17.7110000  
H 12.9300000   18.3210000   15.9170000  
H 11.6130000   22.2620000   14.7830000  
H 12.9320000   25.8280000   17.8870000  
H 14.1990000   22.6020000   20.9760000  
H 12.1520000   24.5910000   16.3610000  
