76
010 
C 16.4310000   10.5250000   20.7860000  
C 15.1000000   10.0600000   20.4250000  
C 14.0820000   10.9960000   20.2130000  
C 14.3070000   12.3500000   20.3660000  
C 15.4620000   12.9540000   20.7980000  
C 16.5930000   12.0930000   21.1080000  
C 12.6650000   10.9050000   19.9310000  
C 12.0720000   12.1880000   19.9650000  
N 13.1300000   13.0030000   20.0640000  
O  9.7770000   11.5440000   19.6420000  
C 10.6410000   12.5810000   19.8560000  
O 10.2970000   13.7670000   19.9690000  
O 17.5600000   12.5910000   21.6400000  
O 17.3750000    9.7610000   20.7060000  
H 14.8890000    9.0170000   20.3790000  
H 12.0650000   10.0020000   19.7410000  
H 10.4370000   10.8570000   19.5640000  
H 13.0080000   13.9960000   20.0340000  
C 15.5390000   14.4100000   20.9870000  
C 14.8820000   15.0520000   22.0160000  
C 15.0960000   16.3810000   22.2320000  
C 15.7970000   17.2570000   21.3560000  
C 16.2930000   16.5990000   20.2170000  
C 16.1550000   15.2080000   20.0290000  
C 14.4000000   14.4670000   23.2270000  
C 14.2790000   15.5800000   24.1500000  
N 14.7360000   16.7630000   23.5070000  
O 13.3830000   14.3700000   25.9040000  
C 13.8230000   15.5240000   25.5420000  
O 13.7840000   16.4260000   26.3410000  
O 17.0110000   17.2440000   19.2530000  
O 16.6380000   14.6760000   18.8610000  
H 14.1330000   13.4370000   23.4680000  
H 13.2250000   13.9240000   25.0730000  
H 14.8150000   17.6710000   23.8520000  
H 17.0570000   18.1820000   19.5920000  
H 17.2220000   15.2620000   18.4440000  
C 15.7750000   18.7030000   21.6390000  
C 16.6020000   19.3390000   22.6410000  
C 16.6200000   20.7070000   22.7190000  
C 15.8500000   21.5630000   21.9140000  
C 15.2020000   20.9430000   20.8240000  
C 15.1500000   19.5600000   20.7230000  
C 17.3410000   18.8510000   23.7780000  
C 17.7210000   19.9560000   24.5050000  
N 17.3010000   21.1200000   23.8580000  
O 18.5690000   18.8350000   26.3970000  
C 18.3710000   20.0150000   25.8320000  
O 18.5440000   21.0250000   26.4590000  
O 14.5730000   21.6890000   19.8860000  
O 14.4410000   19.0550000   19.6370000  
H 17.4130000   17.8340000   24.1290000  
H 18.5160000   18.2010000   25.6730000  
H 17.4860000   22.0800000   24.0790000  
H 14.8540000   22.6050000   20.0910000  
H 13.9550000   19.6830000   19.1640000  
C 15.7640000   23.0710000   22.1190000  
C 16.3630000   23.9560000   21.1820000  
C 16.1800000   25.3020000   21.3690000  
C 15.5150000   25.8880000   22.4830000  
C 15.0310000   25.0580000   23.4400000  
C 15.1130000   23.6490000   23.3020000  
C 17.1520000   23.7530000   19.9530000  
C 17.4360000   25.0040000   19.4670000  
N 16.8080000   25.9610000   20.2710000  
O 19.0390000   24.3490000   17.7390000  
C 18.2280000   25.3050000   18.2580000  
O 18.2330000   26.4440000   17.7510000  
O 14.3250000   25.5520000   24.5180000  
O 14.5420000   22.8700000   24.3370000  
H 17.6150000   22.7820000   19.6200000  
H 18.8450000   23.6120000   18.3120000  
H 16.7120000   26.9380000   20.0750000  
H 13.5220000   25.0000000   24.7100000  
H 14.8790000   21.9730000   24.2110000  
H 15.6500000   26.9690000   22.6480000  
