76
010 
C 17.0660000   18.1100000   29.2040000  
C 17.5610000   16.7060000   29.3410000  
C 17.4550000   15.8930000   28.2280000  
C 17.0610000   16.3570000   27.0090000  
C 16.7380000   17.6450000   26.7500000  
C 16.6650000   18.6330000   27.7840000  
C 17.9240000   14.5180000   28.0310000  
C 17.6830000   14.2030000   26.6840000  
N 17.1460000   15.3440000   26.1040000  
O 18.4280000   11.9060000   26.6610000  
C 17.9560000   12.8890000   25.9210000  
O 17.6560000   12.5760000   24.8250000  
O 16.1930000   19.7650000   27.6380000  
O 16.8570000   18.8440000   30.1250000  
H 17.9240000   16.4620000   30.3440000  
H 18.2770000   13.8740000   28.8530000  
H 18.4480000   12.2180000   27.5770000  
H 16.8720000   15.4110000   25.1050000  
C 16.3340000   17.9230000   25.3460000  
C 15.0640000   17.5310000   24.9750000  
C 14.6180000   17.7180000   23.7090000  
C 15.4470000   18.3000000   22.7070000  
C 16.7050000   18.7500000   23.0930000  
C 17.0920000   18.7180000   24.4470000  
C 14.0020000   16.7640000   25.6410000  
C 12.9510000   16.5660000   24.6500000  
N 13.3810000   17.1340000   23.4490000  
O 11.6740000   15.0410000   26.0450000  
C 11.7300000   15.6730000   24.8730000  
O 10.8150000   15.6760000   24.0750000  
O 17.5230000   19.4220000   22.1190000  
O 18.3860000   19.1180000   24.7840000  
H 14.0980000   16.2480000   26.6080000  
H 12.5410000   15.1720000   26.4370000  
H 12.9920000   16.8770000   22.5450000  
H 17.1210000   19.3990000   21.2210000  
H 18.8620000   19.3060000   23.8840000  
C 15.0710000   18.3210000   21.3010000  
C 14.8830000   19.5440000   20.6450000  
C 14.5340000   19.6170000   19.3030000  
C 14.4120000   18.5460000   18.4820000  
C 14.8840000   17.2980000   19.0510000  
C 15.1520000   17.1900000   20.4440000  
C 15.0530000   20.9250000   21.0570000  
C 14.6270000   21.7280000   20.0390000  
N 14.3410000   20.9270000   18.8950000  
O 15.1290000   23.8030000   20.9960000  
C 14.6960000   23.1730000   19.9040000  
O 14.4030000   23.7200000   18.8530000  
O 14.8090000   16.1500000   18.2810000  
O 15.5220000   16.0240000   21.0330000  
H 15.5030000   21.3110000   21.8860000  
H 15.4720000   23.1640000   21.6260000  
H 14.2210000   21.2520000   17.9490000  
H 14.4920000   16.4440000   17.4650000  
H 15.9920000   15.4480000   20.3650000  
C 14.1580000   18.6270000   17.0240000  
C 15.1450000   19.1690000   16.1960000  
C 14.9610000   19.2630000   14.8570000  
C 13.8220000   18.7730000   14.2140000  
C 12.8160000   18.2380000   15.0170000  
C 12.9620000   18.1600000   16.4330000  
C 16.4510000   19.7250000   16.4850000  
C 16.9570000   20.1420000   15.2520000  
N 16.0310000   19.9060000   14.2670000  
O 19.0770000   20.9130000   15.9690000  
C 18.3100000   20.6630000   14.8910000  
O 18.6590000   20.8910000   13.7270000  
O 11.6560000   17.8220000   14.4180000  
O 11.9620000   17.6820000   17.1840000  
H 16.8890000   19.6710000   17.4780000  
H 18.3750000   20.8470000   16.6860000  
H 16.1000000   20.0970000   13.2750000  
H 11.7500000   18.1670000   13.4890000  
H 12.1500000   17.8500000   18.1290000  
H 13.7400000   18.9210000   13.1120000  
