76
010 
C  8.2560000   15.8460000   20.7060000  
C  8.1510000   14.8810000   21.7990000  
C  9.1710000   14.6850000   22.7280000  
C 10.3220000   15.5140000   22.6080000  
C 10.5240000   16.4330000   21.6860000  
C  9.5130000   16.7480000   20.6450000  
C  9.4300000   13.6860000   23.7400000  
C 10.7410000   13.9870000   24.2450000  
N 11.2300000   15.1280000   23.5650000  
O 10.8820000   11.8460000   25.3450000  
C 11.4500000   13.0490000   25.0770000  
O 12.6140000   13.2430000   25.3370000  
O  9.6410000   17.5440000   19.6890000  
O  7.4120000   16.0030000   19.8250000  
H  7.2880000   14.2200000   21.7050000  
H  8.8350000   12.7710000   24.0860000  
H  9.9550000   11.9350000   25.3080000  
H 12.1950000   15.3930000   23.4730000  
C 11.8660000   17.0780000   21.7740000  
C 12.9720000   16.5090000   21.0770000  
C 14.2460000   16.9710000   21.3290000  
C 14.6030000   18.0970000   22.0480000  
C 13.5010000   18.7700000   22.6040000  
C 12.1760000   18.3170000   22.4970000  
C 13.1340000   15.3090000   20.2770000  
C 14.4980000   15.1750000   19.9480000  
N 15.1630000   16.2760000   20.5720000  
O 14.4120000   13.2170000   18.5210000  
C 15.1960000   14.1930000   19.0820000  
O 16.3850000   14.2890000   18.8030000  
O 13.7570000   19.8610000   23.3570000  
O 11.1150000   18.9120000   23.1540000  
H 12.2950000   14.6670000   19.9040000  
H 13.4750000   13.1560000   18.9020000  
H 16.0150000   16.6760000   20.2330000  
H 14.6870000   19.8170000   23.6890000  
H 11.4910000   19.5750000   23.7730000  
C 15.9340000   18.6600000   21.9680000  
C 16.3760000   19.4410000   20.8980000  
C 17.6780000   19.7550000   20.6840000  
C 18.6550000   19.4640000   21.6960000  
C 18.3530000   18.5000000   22.6450000  
C 16.9450000   18.1520000   22.8650000  
C 15.7140000   19.9200000   19.7380000  
C 16.6460000   20.7010000   19.0350000  
N 17.9190000   20.5950000   19.6190000  
O 15.2130000   21.0640000   17.1490000  
C 16.4480000   21.2470000   17.6640000  
O 17.3900000   21.7510000   17.0030000  
O 19.3320000   17.9800000   23.5010000  
O 16.5400000   17.4510000   24.0120000  
H 14.7510000   19.6830000   19.3840000  
H 14.6300000   20.6120000   17.8300000  
H 18.8200000   20.9010000   19.2660000  
H 20.1470000   18.2860000   23.1340000  
H 17.3600000   17.1600000   24.5020000  
C 20.0560000   19.9950000   21.4880000  
C 20.5220000   20.9750000   22.3900000  
C 21.7110000   21.5740000   22.3070000  
C 22.6110000   21.0970000   21.3590000  
C 22.2400000   20.0380000   20.5360000  
C 20.9980000   19.4750000   20.6130000  
C 19.9090000   21.5050000   23.5630000  
C 20.7500000   22.4190000   24.1300000  
N 21.8530000   22.4910000   23.2970000  
O 19.3120000   23.1150000   26.0080000  
C 20.4720000   23.3220000   25.2860000  
O 21.2950000   24.0880000   25.7440000  
O 23.0830000   19.6710000   19.5540000  
O 20.7260000   18.5220000   19.7270000  
H 18.8720000   21.3430000   23.8350000  
H 18.8210000   22.4750000   25.5150000  
H 22.6290000   23.1520000   23.4090000  
H 22.6560000   18.9430000   19.1360000  
H 19.8990000   18.0960000   19.9760000  
H 23.5860000   21.5620000   21.2350000  
