76
010 
C 13.2570000   10.6580000   22.0020000  
C 14.0480000   10.1370000   23.1340000  
C 14.8290000   10.9820000   23.8240000  
C 15.0200000   12.3430000   23.5100000  
C 14.3540000   13.0430000   22.5150000  
C 13.4110000   12.2070000   21.6530000  
C 15.6080000   10.7650000   24.9770000  
C 16.3110000   11.9100000   25.3490000  
N 15.9230000   12.8440000   24.3660000  
O 17.3150000   10.9270000   27.1910000  
C 17.2310000   12.0520000   26.5030000  
O 17.8550000   13.0380000   26.7460000  
O 12.7720000   12.6330000   20.7120000  
O 12.5250000    9.9280000   21.3060000  
H 13.9290000    9.0740000   23.3750000  
H 15.6290000    9.8420000   25.4250000  
H 16.6070000   10.3590000   26.9460000  
H 16.1050000   13.8370000   24.4720000  
C 14.5740000   14.5370000   22.2940000  
C 15.2000000   14.9640000   21.1410000  
C 15.5510000   16.2930000   21.0160000  
C 15.3810000   17.2670000   21.9250000  
C 14.7370000   16.8320000   23.0830000  
C 14.3050000   15.4880000   23.2890000  
C 15.4940000   14.3150000   19.8930000  
C 15.9570000   15.3390000   19.0160000  
N 15.8190000   16.5780000   19.6630000  
O 16.4390000   13.7970000   17.2400000  
C 16.3140000   15.0900000   17.5700000  
O 16.5920000   15.9110000   16.7490000  
O 14.4750000   17.7090000   24.1390000  
O 13.7140000   15.1360000   24.4390000  
H 15.5040000   13.2840000   19.5920000  
H 16.4710000   13.1860000   18.0410000  
H 16.1860000   17.4570000   19.2920000  
H 15.0870000   18.5180000   24.0000000  
H 13.6670000   15.9320000   24.9960000  
C 15.7210000   18.6930000   21.6260000  
C 14.8230000   19.7330000   21.4700000  
C 15.2630000   21.0020000   21.1450000  
C 16.6590000   21.3540000   20.9490000  
C 17.5760000   20.2800000   21.2750000  
C 17.1070000   18.9840000   21.6050000  
C 13.4230000   19.7530000   21.3390000  
C 13.0360000   21.0750000   21.0490000  
N 14.1530000   21.8890000   20.9730000  
O 10.7810000   20.4660000   20.7240000  
C 11.6270000   21.5420000   20.7880000  
O 11.2460000   22.6690000   20.5700000  
O 18.9380000   20.5490000   21.3300000  
O 17.9280000   17.9790000   21.8720000  
H 12.7220000   18.9000000   21.4420000  
H 11.3680000   19.7310000   20.8750000  
H 14.0790000   22.8730000   20.7800000  
H 19.0850000   21.4160000   20.7380000  
H 17.3750000   17.2460000   22.0980000  
C 17.0730000   22.7070000   20.5390000  
C 16.6020000   23.8790000   21.0850000  
C 17.0700000   25.0960000   20.7140000  
C 17.9400000   25.2260000   19.6290000  
C 18.2390000   24.1360000   18.8890000  
C 17.8700000   22.8020000   19.3470000  
C 15.7880000   24.1460000   22.2170000  
C 15.7950000   25.4590000   22.4910000  
N 16.6940000   26.0620000   21.6160000  
O 14.3870000   25.2990000   24.3550000  
C 15.1500000   26.1270000   23.5970000  
O 15.2730000   27.3070000   23.8320000  
O 19.0250000   24.2410000   17.7760000  
O 18.1870000   21.8020000   18.5550000  
H 15.2830000   23.4130000   22.9320000  
H 14.3860000   24.4230000   23.9050000  
H 16.8650000   27.0540000   21.4810000  
H 18.7000000   25.0560000   17.3400000  
H 18.6730000   22.2040000   17.7710000  
H 18.3940000   26.1830000   19.3640000  
