76
010 
C  9.1220000   14.6160000   19.7380000  
C  8.5390000   14.2140000   21.1020000  
C  9.2430000   14.5920000   22.2330000  
C 10.3680000   15.3680000   22.3030000  
C 10.9910000   15.8010000   21.1400000  
C 10.4440000   15.3520000   19.8060000  
C  9.0710000   14.1280000   23.5860000  
C 10.0340000   14.6210000   24.3900000  
N 10.8550000   15.4430000   23.5690000  
O  9.1610000   13.5600000   26.3270000  
C 10.1130000   14.3740000   25.8550000  
O 10.9080000   14.9570000   26.5740000  
O 10.9430000   15.5580000   18.7270000  
O  8.5850000   14.3660000   18.6920000  
H  7.6610000   13.6570000   21.1010000  
H  8.1190000   13.5770000   23.9110000  
H  8.7770000   13.1360000   25.5540000  
H 11.7060000   15.9130000   23.8780000  
C 12.2590000   16.4140000   21.3140000  
C 13.3680000   15.7940000   20.8270000  
C 14.5930000   16.3670000   20.8920000  
C 14.8980000   17.6860000   21.3110000  
C 13.7780000   18.3530000   21.8990000  
C 12.4770000   17.7180000   21.8750000  
C 13.6020000   14.3570000   20.3880000  
C 14.9970000   14.1720000   20.3320000  
N 15.5540000   15.4940000   20.5360000  
O 15.0240000   11.8540000   20.1300000  
C 15.7510000   12.9270000   20.1610000  
O 16.9870000   12.7880000   20.1280000  
O 13.9080000   19.5500000   22.5400000  
O 11.4240000   18.4060000   22.3810000  
H 12.7730000   13.6850000   20.0760000  
H 14.1280000   12.2570000   20.1780000  
H 16.4780000   15.6920000   20.8420000  
H 14.7120000   19.9960000   22.2330000  
H 11.6800000   19.2580000   22.7280000  
C 16.2950000   18.2540000   21.3810000  
C 16.7930000   19.1900000   20.4420000  
C 18.0210000   19.7460000   20.6260000  
C 18.7490000   19.6480000   21.8110000  
C 18.2840000   18.6850000   22.7680000  
C 17.0480000   17.9800000   22.5650000  
C 16.3010000   19.8160000   19.2450000  
C 17.1830000   20.8080000   18.8230000  
N 18.2440000   20.7420000   19.7070000  
O 15.8900000   21.3480000   16.9770000  
C 16.9960000   21.6900000   17.6790000  
O 17.6860000   22.5780000   17.3290000  
O 18.9830000   18.4990000   24.0010000  
O 16.5910000   17.0050000   23.5010000  
H 15.3830000   19.5050000   18.7980000  
H 15.6320000   20.4910000   17.2950000  
H 18.9720000   21.4200000   19.8270000  
H 19.7870000   19.0640000   23.9020000  
H 17.1820000   16.9630000   24.2240000  
C 20.0290000   20.3960000   21.9550000  
C 20.0880000   21.5430000   22.7860000  
C 21.1470000   22.3580000   22.7590000  
C 22.3100000   22.0560000   21.9780000  
C 22.2580000   20.9550000   21.1160000  
C 21.1210000   20.1280000   21.0930000  
C 19.0910000   22.0780000   23.5660000  
C 19.6210000   23.2690000   24.1070000  
N 20.9350000   23.4390000   23.6030000  
O 17.8380000   23.7920000   25.6110000  
C 19.0070000   24.1680000   25.1500000  
O 19.5480000   25.2110000   25.5790000  
O 23.4040000   20.7000000   20.3390000  
O 21.1650000   18.9520000   20.3420000  
H 18.0680000   21.6680000   23.7500000  
H 17.6390000   22.8920000   25.1910000  
H 21.5960000   24.1910000   23.8160000  
H 23.1480000   20.0470000   19.6150000  
H 20.2380000   18.8360000   19.9310000  
H 23.1730000   22.6970000   21.9980000  
