76
010 
C 11.5630000   12.1390000   24.4650000  
C 10.7030000   11.8890000   23.2780000  
C 10.6830000   12.7880000   22.2180000  
C 11.4810000   13.9360000   22.1590000  
C 12.5730000   14.0940000   23.0210000  
C 12.6890000   13.2500000   24.2690000  
C  9.9750000   12.7160000   20.9940000  
C 10.2360000   13.8660000   20.2390000  
N 11.1940000   14.5690000   20.9810000  
O  8.5800000   13.3930000   18.5290000  
C  9.6440000   14.1910000   18.8520000  
O 10.0680000   15.1400000   18.2260000  
O 13.6640000   13.2810000   25.0610000  
O 11.3800000   11.6160000   25.5530000  
H 10.0170000   11.0480000   23.3380000  
H  9.4110000   11.8630000   20.5140000  
H  8.5650000   12.6150000   19.1490000  
H 11.6310000   15.3690000   20.5760000  
C 13.4000000   15.2310000   22.6750000  
C 13.2580000   16.4130000   23.3540000  
C 14.0800000   17.4970000   23.1360000  
C 15.0640000   17.5960000   22.0960000  
C 15.1940000   16.4070000   21.3080000  
C 14.4370000   15.2320000   21.6120000  
C 12.4670000   16.7480000   24.5340000  
C 12.9400000   17.9650000   25.0450000  
N 13.9880000   18.4100000   24.2330000  
O 11.3450000   18.3010000   26.8600000  
C 12.4810000   18.7510000   26.2150000  
O 13.0160000   19.7500000   26.6100000  
O 16.1110000   16.4200000   20.2520000  
O 14.6540000   14.0390000   20.9060000  
H 11.6290000   16.1580000   24.9430000  
H 10.9350000   17.5250000   26.4390000  
H 14.5980000   19.1900000   24.3850000  
H 16.5290000   17.2050000   20.3270000  
H 15.3170000   14.2310000   20.2090000  
C 15.9710000   18.7570000   21.9510000  
C 17.3370000   18.6520000   22.0960000  
C 18.1190000   19.7040000   21.9510000  
C 17.6830000   20.9720000   21.5040000  
C 16.2810000   21.0980000   21.3060000  
C 15.4120000   20.0290000   21.6180000  
C 18.1950000   17.5660000   22.6240000  
C 19.4600000   18.1110000   22.6080000  
N 19.4600000   19.4580000   22.2350000  
O 20.4240000   16.0010000   23.2050000  
C 20.6710000   17.3330000   23.0710000  
O 21.8090000   17.7430000   23.2800000  
O 15.7750000   22.3530000   20.8360000  
O 14.0440000   20.2050000   21.4140000  
H 17.8580000   16.6470000   23.0730000  
H 19.5770000   15.6560000   22.8620000  
H 20.2620000   20.0320000   22.2740000  
H 16.5960000   22.9470000   20.6060000  
H 13.7060000   19.3100000   21.2480000  
C 18.6360000   22.0840000   21.1080000  
C 18.8710000   22.3210000   19.7730000  
C 19.8180000   23.2990000   19.3510000  
C 20.4920000   24.0550000   20.2350000  
C 20.2630000   23.8540000   21.6090000  
C 19.3730000   22.8040000   22.0540000  
C 18.4170000   21.7540000   18.5300000  
C 18.9870000   22.3720000   17.4690000  
N 19.8060000   23.4060000   17.9860000  
O 17.8580000   21.1580000   15.6700000  
C 18.7340000   22.1920000   16.0480000  
O 19.3190000   22.8100000   15.2280000  
O 20.8000000   24.7600000   22.5020000  
O 19.1750000   22.6940000   23.4300000  
H 17.6880000   20.9890000   18.4280000  
H 17.3500000   21.1030000   16.4730000  
H 20.1970000   24.1980000   17.4610000  
H 21.2860000   25.4260000   21.9620000  
H 19.7580000   23.3100000   23.8660000  
H 21.1100000   24.8760000   19.8600000  
