76
010 
C 20.1900000   14.6990000   26.8550000  
C 19.3330000   13.5200000   27.1700000  
C 18.0750000   13.3470000   26.6340000  
C 17.4980000   14.2170000   25.7410000  
C 18.1130000   15.3700000   25.2810000  
C 19.4980000   15.7440000   25.8210000  
C 17.0440000   12.3180000   26.8460000  
C 15.9340000   12.6460000   26.0930000  
N 16.2480000   13.8840000   25.5220000  
O 14.6580000   10.6980000   26.5730000  
C 14.6370000   11.8800000   25.9240000  
O 13.7180000   12.1880000   25.1850000  
O 20.1490000   16.6880000   25.3600000  
O 21.3360000   14.8540000   27.2780000  
H 19.6700000   12.8000000   27.9140000  
H 17.2390000   11.4240000   27.3820000  
H 15.3730000   10.7770000   27.2710000  
H 15.7390000   14.4100000   24.7780000  
C 17.4090000   15.9530000   24.2600000  
C 16.6170000   17.0710000   24.5550000  
C 15.9410000   17.7050000   23.6030000  
C 15.9120000   17.3590000   22.2290000  
C 16.6720000   16.1840000   21.8570000  
C 17.4230000   15.5020000   22.9300000  
C 16.3070000   17.7670000   25.7720000  
C 15.2960000   18.6250000   25.5090000  
N 15.1760000   18.6800000   24.1070000  
O 15.0200000   19.5430000   27.7370000  
C 14.5110000   19.5180000   26.4180000  
O 13.7130000   20.3650000   26.0490000  
O 16.7510000   15.7390000   20.5570000  
O 18.1350000   14.3630000   22.5790000  
H 16.5210000   17.4890000   26.7250000  
H 15.6590000   18.8020000   27.7350000  
H 14.4200000   19.1570000   23.6440000  
H 16.4440000   16.4150000   19.8890000  
H 18.1900000   14.2680000   21.5970000  
C 15.1420000   18.1440000   21.1560000  
C 15.8710000   19.0720000   20.3620000  
C 15.2120000   19.9470000   19.5240000  
C 13.8090000   20.0440000   19.4900000  
C 13.0500000   19.1230000   20.2810000  
C 13.7030000   18.1630000   21.0950000  
C 17.2420000   19.4930000   20.2560000  
C 17.3180000   20.7170000   19.5500000  
N 15.9820000   21.0350000   19.1750000  
O 19.5130000   21.0750000   20.0190000  
C 18.5020000   21.5050000   19.3000000  
O 18.5490000   22.5810000   18.6770000  
O 11.6950000   19.3000000   20.2940000  
O 12.9040000   17.3080000   21.8020000  
H 18.0640000   19.0430000   20.8100000  
H 19.2100000   20.2860000   20.5030000  
H 15.6240000   21.9560000   18.8690000  
H 11.5150000   19.9320000   19.5430000  
H 12.0770000   17.6650000   21.6460000  
C 13.1050000   21.0580000   18.5700000  
C 13.1730000   20.9930000   17.1740000  
C 12.4300000   21.8610000   16.3590000  
C 11.7000000   22.9050000   16.9340000  
C 11.6730000   23.0650000   18.3100000  
C 12.2990000   22.0880000   19.1080000  
C 13.8960000   20.1370000   16.3010000  
C 13.6090000   20.5320000   14.9800000  
N 12.7500000   21.6170000   15.0450000  
O 14.6580000   18.7620000   13.7280000  
C 13.9170000   19.8280000   13.6750000  
O 13.6180000   20.3180000   12.6010000  
O 11.0100000   24.2290000   18.8100000  
O 12.2410000   22.2060000   20.4720000  
H 14.4140000   19.2420000   16.6130000  
H 14.8040000   18.6760000   14.6910000  
H 12.4760000   22.1290000   14.2450000  
H 10.5900000   24.6710000   18.0700000  
H 12.9310000   21.7370000   20.8850000  
H 11.1930000   23.4780000   16.2300000  
