76
010 
C 12.3920000   12.1620000   24.8070000  
C 12.9400000   10.9770000   24.1650000  
C 13.8600000   11.0250000   23.1500000  
C 14.4790000   12.2220000   22.7430000  
C 14.0700000   13.4390000   23.2480000  
C 12.9740000   13.5210000   24.2540000  
C 14.4440000    9.9990000   22.3460000  
C 15.3890000   10.6160000   21.4510000  
N 15.2910000   11.9840000   21.6830000  
O 16.2540000    8.6660000   20.3530000  
C 16.3130000   10.0240000   20.4630000  
O 17.0630000   10.7050000   19.8030000  
O 12.5330000   14.5560000   24.5970000  
O 11.5940000   12.0370000   25.7770000  
H 12.5030000   10.0640000   24.4910000  
H 14.2710000    9.0070000   22.5800000  
H 15.7200000    8.3930000   21.0790000  
H 15.8410000   12.7900000   21.2780000  
C 14.6750000   14.6230000   22.6400000  
C 13.8540000   15.5720000   21.9220000  
C 14.3660000   16.7800000   21.6090000  
C 15.7130000   17.2150000   21.8530000  
C 16.4870000   16.2310000   22.4970000  
C 15.9700000   14.9620000   22.9190000  
C 12.4700000   15.6370000   21.5560000  
C 12.1850000   16.9460000   21.3060000  
N 13.4000000   17.6400000   21.1290000  
O  9.8330000   16.8420000   21.0980000  
C 10.9140000   17.5730000   20.9930000  
O 10.8540000   18.7200000   20.5750000  
O 17.8400000   16.5180000   22.7640000  
O 16.7140000   14.1110000   23.6610000  
H 11.7790000   14.8400000   21.6620000  
H 10.2840000   16.1730000   21.6700000  
H 13.4370000   18.6000000   20.7550000  
H 18.0230000   17.3310000   22.3420000  
H 17.4630000   14.6440000   24.0630000  
C 16.2750000   18.5070000   21.3710000  
C 15.6910000   19.7170000   21.7450000  
C 15.9840000   20.9220000   21.1400000  
C 17.0170000   21.1050000   20.1740000  
C 17.6840000   19.8680000   19.8280000  
C 17.2770000   18.6330000   20.3410000  
C 14.6140000   19.9980000   22.7260000  
C 14.2000000   21.3350000   22.4990000  
N 15.1020000   21.8950000   21.5350000  
O 12.3560000   21.3090000   24.0230000  
C 13.1700000   22.1370000   23.2420000  
O 13.0610000   23.3390000   23.1140000  
O 18.5400000   19.8420000   18.7330000  
O 17.7250000   17.5470000   19.6870000  
H 14.1660000   19.2330000   23.3610000  
H 12.7180000   20.4020000   23.8260000  
H 14.9770000   22.7470000   21.0150000  
H 18.6100000   20.6770000   18.3140000  
H 17.2640000   16.8220000   20.0180000  
C 17.5190000   22.4500000   19.7780000  
C 17.9950000   23.3250000   20.7420000  
C 18.3350000   24.6550000   20.4560000  
C 18.0870000   25.1800000   19.2200000  
C 17.5750000   24.3180000   18.2320000  
C 17.2400000   22.9760000   18.4740000  
C 18.4300000   23.0590000   22.1060000  
C 18.7940000   24.2510000   22.7050000  
N 18.7960000   25.2030000   21.6550000  
O 19.1650000   23.3200000   24.9030000  
C 19.2410000   24.4430000   24.1080000  
O 19.7630000   25.4620000   24.5330000  
O 17.3840000   24.8290000   16.9990000  
O 16.6620000   22.1810000   17.5980000  
H 18.2540000   22.0740000   22.6110000  
H 18.4870000   22.6870000   24.6410000  
H 18.9300000   26.2170000   21.7320000  
H 16.9720000   25.7150000   17.0290000  
H 16.5470000   22.6640000   16.7820000  
H 18.2570000   26.2640000   19.1270000  
