76
010 
C 13.2560000   15.4200000   28.1220000  
C 13.9270000   16.1080000   29.2530000  
C 14.7120000   17.2380000   29.0570000  
C 14.8800000   17.7430000   27.7770000  
C 14.2100000   17.2680000   26.6480000  
C 13.3290000   16.1210000   26.7230000  
C 15.3630000   18.1670000   29.9610000  
C 15.9590000   19.1700000   29.1870000  
N 15.6190000   18.8580000   27.8810000  
O 16.8170000   20.5140000   30.9480000  
C 16.7300000   20.3940000   29.6060000  
O 17.1500000   21.2930000   28.9170000  
O 12.7560000   15.6690000   25.7530000  
O 12.6000000   14.4470000   28.3070000  
H 13.7910000   15.6010000   30.1730000  
H 15.2950000   18.0500000   31.0310000  
H 16.1540000   19.8060000   31.1800000  
H 15.9500000   19.2860000   27.0060000  
C 14.6050000   17.8890000   25.3530000  
C 15.5220000   17.2050000   24.5030000  
C 15.7530000   17.5890000   23.2670000  
C 15.1820000   18.6640000   22.6730000  
C 14.2920000   19.4880000   23.5020000  
C 13.9500000   18.9940000   24.7810000  
C 16.1820000   15.9470000   24.7210000  
C 16.8340000   15.5910000   23.5530000  
N 16.5650000   16.6610000   22.6550000  
O 17.7920000   13.5800000   24.4410000  
C 17.6220000   14.3470000   23.3470000  
O 17.9160000   14.0020000   22.2630000  
O 13.5360000   20.4940000   22.9700000  
O 13.0000000   19.6600000   25.5530000  
H 16.0230000   15.2780000   25.5930000  
H 17.4640000   14.2040000   25.1190000  
H 16.8670000   16.7180000   21.6710000  
H 13.9030000   20.6620000   22.0970000  
H 12.4110000   20.1160000   24.9400000  
C 15.3920000   18.9680000   21.1810000  
C 14.9640000   18.1650000   20.1180000  
C 15.4050000   18.3110000   18.9000000  
C 16.4150000   19.1650000   18.4910000  
C 16.9490000   19.9960000   19.5080000  
C 16.3150000   20.0020000   20.8190000  
C 14.1640000   16.9660000   20.0980000  
C 14.2960000   16.3860000   18.8650000  
N 14.9520000   17.3460000   18.0540000  
O 13.1560000   14.4520000   19.4350000  
C 13.8350000   15.0960000   18.4520000  
O 14.0600000   14.6550000   17.3370000  
O 17.9800000   20.7950000   19.2340000  
O 16.9510000   20.8580000   21.7670000  
H 13.6270000   16.5410000   20.8820000  
H 13.2280000   14.9270000   20.2660000  
H 15.2610000   17.2090000   17.1200000  
H 18.2790000   20.5570000   18.3510000  
H 16.4290000   20.6790000   22.5450000  
C 16.9080000   19.0870000   17.0980000  
C 16.0430000   19.4400000   16.0090000  
C 16.4770000   19.3080000   14.6800000  
C 17.7880000   18.9360000   14.3640000  
C 18.7330000   18.6360000   15.4020000  
C 18.2360000   18.7510000   16.7610000  
C 14.7300000   19.9750000   16.0100000  
C 14.5070000   20.2240000   14.6480000  
N 15.5420000   19.7780000   13.8480000  
O 12.4570000   21.2660000   15.0690000  
C 13.3800000   21.0030000   14.1220000  
O 13.1480000   21.3220000   12.9610000  
O 20.0350000   18.1690000   15.1080000  
O 19.1790000   18.4480000   17.7160000  
H 14.1720000   20.3710000   16.8290000  
H 12.7390000   20.8190000   15.8320000  
H 15.6840000   19.9980000   12.8390000  
H 20.1000000   18.0180000   14.1610000  
H 19.9710000   18.0860000   17.2500000  
H 18.2300000   19.0560000   13.3530000  
