76
010 
C  8.4710000   16.4990000   20.9380000  
C  7.9280000   15.8440000   22.1450000  
C  8.6250000   15.7500000   23.2820000  
C  9.9490000   16.1700000   23.4300000  
C 10.6940000   16.6190000   22.3640000  
C  9.9980000   16.8680000   21.0620000  
C  8.2600000   15.1210000   24.5270000  
C  9.4170000   15.1440000   25.3440000  
N 10.4560000   15.7470000   24.6150000  
O  8.2170000   14.3210000   27.1480000  
C  9.4220000   14.7480000   26.7600000  
O 10.3590000   14.8050000   27.5500000  
O 10.6070000   17.2540000   20.0090000  
O  7.7710000   16.7630000   19.9780000  
H  6.9400000   15.5360000   22.1100000  
H  7.2560000   14.7620000   24.7240000  
H  7.5370000   14.2820000   26.3970000  
H 11.3530000   16.0100000   25.0630000  
C 12.1170000   16.9870000   22.5300000  
C 13.1500000   16.1740000   22.0660000  
C 14.4550000   16.5940000   22.0030000  
C 14.8660000   17.8950000   22.2560000  
C 13.8830000   18.7240000   22.7270000  
C 12.5400000   18.2950000   22.9000000  
C 13.1270000   14.8710000   21.4480000  
C 14.4600000   14.4680000   21.2940000  
N 15.3110000   15.5970000   21.5180000  
O 13.9850000   12.1420000   20.9200000  
C 14.9490000   13.1320000   20.8880000  
O 16.0930000   12.9550000   20.5830000  
O 14.3050000   19.9710000   23.1050000  
O 11.6180000   19.3210000   23.1420000  
H 12.3480000   14.1880000   21.2120000  
H 13.1640000   12.5830000   21.1680000  
H 16.2730000   15.7440000   21.2900000  
H 15.0510000   20.2300000   22.5470000  
H 12.0900000   20.1080000   23.4980000  
C 16.2830000   18.2960000   22.0110000  
C 16.8500000   18.5200000   20.6880000  
C 18.1530000   18.9550000   20.6830000  
C 19.0070000   19.1670000   21.7550000  
C 18.5240000   18.9320000   23.0570000  
C 17.1490000   18.4910000   23.1520000  
C 16.3890000   18.5120000   19.3420000  
C 17.4310000   18.9580000   18.5990000  
N 18.5450000   19.3180000   19.4270000  
O 16.3780000   18.8350000   16.4880000  
C 17.5020000   19.2780000   17.1560000  
O 18.4990000   19.6830000   16.5610000  
O 19.3370000   19.0560000   24.1990000  
O 16.5700000   18.2590000   24.3600000  
H 15.4140000   18.3270000   19.0440000  
H 15.8010000   18.4580000   17.2170000  
H 19.5100000   19.4920000   19.1650000  
H 19.9560000   19.7130000   23.8520000  
H 15.7160000   17.8280000   24.2810000  
C 20.4160000   19.7050000   21.5450000  
C 20.5500000   21.0060000   20.9450000  
C 21.7440000   21.6140000   20.8990000  
C 22.9050000   20.9580000   21.2500000  
C 22.8540000   19.6340000   21.6210000  
C 21.6250000   19.0760000   21.8260000  
C 19.5870000   21.9850000   20.5730000  
C 20.3250000   23.1400000   20.2200000  
N 21.7070000   22.9260000   20.4140000  
O 18.4200000   24.3850000   19.5660000  
C 19.7670000   24.4400000   19.7730000  
O 20.4980000   25.3910000   19.6130000  
O 23.9850000   18.9570000   21.9790000  
O 21.5630000   17.7730000   22.3120000  
H 18.4840000   21.8480000   20.6000000  
H 18.1350000   23.4760000   19.5390000  
H 22.4680000   23.6000000   20.1920000  
H 23.6270000   18.0760000   22.1170000  
H 20.7460000   17.3890000   21.9240000  
H 23.8660000   21.4490000   21.0110000  
