76
010 
C  8.9220000   17.5880000   25.4540000  
C  8.2680000   16.3860000   24.8940000  
C  8.9690000   15.6590000   24.0370000  
C 10.2390000   15.9610000   23.5260000  
C 10.9980000   17.0080000   23.9360000  
C 10.4010000   17.9400000   24.9450000  
C  8.6040000   14.4630000   23.3970000  
C  9.6830000   14.0480000   22.5430000  
N 10.6190000   15.0340000   22.6140000  
O  8.7490000   11.8990000   22.1490000  
C  9.8190000   12.6850000   21.8970000  
O 10.8550000   12.2880000   21.3220000  
O 11.0320000   18.8500000   25.4450000  
O  8.4220000   18.2720000   26.3330000  
H  7.3080000   16.0440000   25.1700000  
H  7.7850000   13.8450000   23.5730000  
H  7.9460000   12.4510000   22.3430000  
H 11.5250000   15.0290000   22.2150000  
C 12.3000000   17.1190000   23.4060000  
C 12.4490000   17.7400000   22.1800000  
C 13.6640000   18.0750000   21.6150000  
C 14.9060000   17.7720000   22.2220000  
C 14.7010000   17.0140000   23.4290000  
C 13.4810000   16.6450000   24.0400000  
C 11.4600000   18.2600000   21.2830000  
C 12.1490000   18.7490000   20.1410000  
N 13.5290000   18.8140000   20.4470000  
O 10.1490000   19.2070000   18.9960000  
C 11.4930000   19.3190000   18.9630000  
O 12.0750000   19.8830000   18.0890000  
O 15.8670000   16.6630000   24.0780000  
O 13.4280000   15.9030000   25.1690000  
H 10.4010000   18.0420000   21.3810000  
H  9.9350000   18.6790000   19.8090000  
H 14.2590000   19.3080000   19.9280000  
H 16.6060000   17.1580000   23.7010000  
H 14.3250000   15.8850000   25.6070000  
C 16.2370000   17.9620000   21.5310000  
C 16.8340000   19.1980000   21.8850000  
C 17.9430000   19.5530000   21.1740000  
C 18.6400000   18.7820000   20.2160000  
C 18.0530000   17.4830000   19.9850000  
C 16.8710000   17.0540000   20.6510000  
C 16.4010000   20.3250000   22.6490000  
C 17.3610000   21.3370000   22.4130000  
N 18.2980000   20.8170000   21.5510000  
O 16.3040000   22.9020000   23.8520000  
C 17.3230000   22.7140000   22.9620000  
O 18.1830000   23.5520000   22.7600000  
O 18.6280000   16.6260000   19.0350000  
O 16.2620000   15.7510000   20.5110000  
H 15.4840000   20.4150000   23.2060000  
H 15.7410000   22.1240000   23.7630000  
H 19.1780000   21.2840000   21.2860000  
H 19.4150000   17.1380000   18.7730000  
H 16.9580000   15.2570000   20.0590000  
C 19.9460000   19.0570000   19.4400000  
C 21.1810000   19.1360000   20.1540000  
C 22.4060000   19.2940000   19.5390000  
C 22.4520000   19.3450000   18.1410000  
C 21.2870000   19.4570000   17.4060000  
C 20.0400000   19.3080000   18.0290000  
C 21.5080000   19.2360000   21.5640000  
C 22.8560000   19.3690000   21.7050000  
N 23.4560000   19.2460000   20.4310000  
O 23.0120000   19.6680000   24.0830000  
C 23.6810000   19.4740000   22.8880000  
O 24.9130000   19.5670000   22.7770000  
O 21.4230000   19.6090000   16.0650000  
O 18.8610000   19.2500000   17.3080000  
H 20.7970000   19.0690000   22.3400000  
H 22.0260000   19.5290000   23.9370000  
H 24.4220000   19.1290000   20.2860000  
H 20.5560000   19.7200000   15.6240000  
H 18.1330000   19.3720000   17.9770000  
H 23.3710000   19.4810000   17.5680000  
