76
010 
C 19.7330000   14.5950000   27.0090000  
C 19.1790000   13.2280000   26.8750000  
C 18.1710000   12.8240000   26.0040000  
C 17.6540000   13.8440000   25.1640000  
C 17.9500000   15.2120000   25.1900000  
C 19.0680000   15.6370000   26.0320000  
C 17.4760000   11.6390000   25.6200000  
C 16.5470000   11.9860000   24.6110000  
N 16.7420000   13.2880000   24.3070000  
O 15.8900000    9.7780000   24.0830000  
C 15.6760000   11.0660000   23.8580000  
O 14.7670000   11.5250000   23.2190000  
O 19.3860000   16.8220000   26.1260000  
O 20.6010000   14.8320000   27.8010000  
H 19.7370000   12.5030000   27.5050000  
H 17.6110000   10.6630000   26.0830000  
H 16.5370000    9.6830000   24.8080000  
H 16.3520000   13.8450000   23.5600000  
C 17.2390000   16.0360000   24.2690000  
C 16.0590000   16.6750000   24.6620000  
C 15.3830000   17.5340000   23.8300000  
C 15.8830000   17.9240000   22.5830000  
C 17.1740000   17.4120000   22.2070000  
C 17.8360000   16.4540000   23.0550000  
C 15.2680000   16.6410000   25.8780000  
C 14.1720000   17.4580000   25.7080000  
N 14.2100000   18.0650000   24.4310000  
O 13.1400000   16.9700000   27.8330000  
C 13.1290000   17.7170000   26.6960000  
O 12.1720000   18.4160000   26.4700000  
O 17.6700000   17.6960000   20.9750000  
O 19.0140000   15.8840000   22.7020000  
H 15.4710000   16.1080000   26.7780000  
H 13.9390000   16.3910000   27.7790000  
H 13.4640000   18.6300000   23.9830000  
H 16.9870000   18.1810000   20.5330000  
H 19.3410000   16.3570000   21.9760000  
C 15.0240000   18.7980000   21.7200000  
C 15.5350000   19.9480000   21.0990000  
C 14.9050000   20.6080000   20.0710000  
C 13.6880000   20.2370000   19.5250000  
C 13.0950000   19.0820000   20.0810000  
C 13.7460000   18.4170000   21.1620000  
C 16.7150000   20.7340000   21.4440000  
C 16.7450000   21.7780000   20.5740000  
N 15.7590000   21.6120000   19.6090000  
O 18.6480000   22.8460000   21.6710000  
C 17.6960000   22.8970000   20.6840000  
O 17.6600000   23.8830000   19.9030000  
O 11.8550000   18.7530000   19.6040000  
O 13.2500000   17.2070000   21.6290000  
H 17.2840000   20.5770000   22.3020000  
H 18.7500000   21.9910000   22.0250000  
H 15.5810000   22.1790000   18.8060000  
H 11.7880000   19.1810000   18.7550000  
H 13.9830000   16.7310000   22.0050000  
C 13.0050000   20.9960000   18.4160000  
C 13.5660000   21.1120000   17.1430000  
C 12.9860000   21.7470000   16.1550000  
C 11.6940000   22.2640000   16.2670000  
C 11.0050000   22.1390000   17.5030000  
C 11.6790000   21.5650000   18.5890000  
C 14.8160000   20.6130000   16.6560000  
C 14.9740000   21.0770000   15.3980000  
N 13.7950000   21.7800000   15.0100000  
O 17.1790000   20.1170000   15.1450000  
C 16.2030000   20.9480000   14.6140000  
O 16.3410000   21.3450000   13.4260000  
O  9.7340000   22.6380000   17.5900000  
O 11.0200000   21.5130000   19.8470000  
H 15.5730000   20.0490000   17.1090000  
H 16.7580000   19.6780000   15.8980000  
H 13.5580000   22.2620000   14.1730000  
H  9.2850000   22.7650000   16.7060000  
H 10.0850000   21.4720000   19.6970000  
H 11.2840000   22.7580000   15.4300000  
