76
010 
C 11.7960000   11.4280000   21.1360000  
C 10.3380000   11.8520000   21.0730000  
C 10.0160000   13.1970000   21.0210000  
C 10.9120000   14.2140000   20.7780000  
C 12.2850000   13.9860000   20.7810000  
C 12.8440000   12.6010000   20.8830000  
C  8.8040000   13.8900000   21.3730000  
C  9.0180000   15.2590000   21.3340000  
N 10.3460000   15.4580000   20.9330000  
O  6.7380000   15.9000000   21.9440000  
C  8.0220000   16.3510000   21.7170000  
O  8.2210000   17.5520000   21.8390000  
O 14.0400000   12.3500000   20.8420000  
O 12.1900000   10.3260000   21.4610000  
H  9.6060000   11.0800000   21.3120000  
H  7.8870000   13.4390000   21.7420000  
H  6.8610000   14.9090000   21.8100000  
H 10.8900000   16.3510000   20.7770000  
C 13.0580000   15.2340000   20.8210000  
C 13.7630000   15.4760000   22.0070000  
C 14.6230000   16.5210000   22.1600000  
C 14.9530000   17.4890000   21.1970000  
C 14.2260000   17.3080000   19.9700000  
C 13.3860000   16.1580000   19.7690000  
C 13.8210000   14.6600000   23.2410000  
C 14.5520000   15.4790000   24.1320000  
N 15.0990000   16.5940000   23.4490000  
O 13.9340000   14.0900000   26.0360000  
C 14.7660000   15.1180000   25.5630000  
O 15.5550000   15.7620000   26.3120000  
O 14.4830000   18.1460000   18.9150000  
O 12.9410000   15.8470000   18.4750000  
H 13.3160000   13.7860000   23.4580000  
H 13.4060000   13.7890000   25.2610000  
H 15.8620000   17.1580000   23.7140000  
H 14.9600000   18.9100000   19.2770000  
H 13.5020000   16.3710000   17.8560000  
C 15.9640000   18.6470000   21.3850000  
C 17.2950000   18.3340000   21.7380000  
C 18.1780000   19.4180000   21.9000000  
C 17.8810000   20.7990000   21.8510000  
C 16.5340000   21.0910000   21.5340000  
C 15.6030000   20.0600000   21.3040000  
C 18.0180000   17.0800000   21.7740000  
C 19.3340000   17.4990000   21.9130000  
N 19.4320000   18.8810000   22.0580000  
O 20.2570000   15.3810000   21.8730000  
C 20.5290000   16.6560000   22.0520000  
O 21.6630000   17.1280000   22.2910000  
O 16.0620000   22.3730000   21.4790000  
O 14.2670000   20.3210000   20.9920000  
H 17.6450000   16.0810000   21.4800000  
H 19.2880000   15.2700000   21.8570000  
H 20.3090000   19.3550000   22.0070000  
H 16.8410000   23.0330000   21.6400000  
H 13.9510000   19.4830000   20.7550000  
C 18.7730000   21.9230000   22.2910000  
C 19.1350000   22.9970000   21.4900000  
C 19.9220000   23.9960000   21.9900000  
C 20.5050000   24.0370000   23.2910000  
C 20.2530000   22.8820000   24.1020000  
C 19.3810000   21.9150000   23.6450000  
C 18.8820000   23.2780000   20.0710000  
C 19.3680000   24.5770000   19.8410000  
N 20.1130000   24.9210000   20.9920000  
O 18.2640000   24.7820000   17.8030000  
C 18.9750000   25.4130000   18.7090000  
O 19.1820000   26.6850000   18.6810000  
O 20.6880000   22.8210000   25.3830000  
O 19.1030000   20.8980000   24.4660000  
H 18.2490000   22.6840000   19.4220000  
H 18.5350000   23.8680000   17.9320000  
H 20.5340000   25.8110000   21.1130000  
H 20.5460000   21.9240000   25.6310000  
H 18.5550000   20.2770000   24.0380000  
H 21.1460000   24.8370000   23.6480000  
