76
010 
C 12.4490000   11.2880000   22.6440000  
C 12.4730000   10.7290000   21.2720000  
C 12.8840000   11.4810000   20.2130000  
C 13.3720000   12.7860000   20.4030000  
C 13.3710000   13.4790000   21.5920000  
C 12.9750000   12.7450000   22.8040000  
C 12.8460000   11.2900000   18.7920000  
C 13.2050000   12.4650000   18.1440000  
N 13.5100000   13.3600000   19.1660000  
O 12.8880000   11.6350000   15.8750000  
C 13.2630000   12.6760000   16.6680000  
O 13.5290000   13.7550000   16.1430000  
O 13.1020000   13.1840000   23.9110000  
O 12.0910000   10.6420000   23.5750000  
H 12.1550000    9.7030000   21.1160000  
H 12.6350000   10.3670000   18.3080000  
H 12.6640000   10.9670000   16.5850000  
H 13.7900000   14.3390000   19.1440000  
C 13.9510000   14.8180000   21.6160000  
C 13.2310000   15.8370000   22.1920000  
C 13.7660000   17.0380000   22.3720000  
C 15.0100000   17.4590000   22.0630000  
C 15.7700000   16.4160000   21.4690000  
C 15.2500000   15.1220000   21.1500000  
C 11.8700000   15.8380000   22.7310000  
C 11.7050000   17.0770000   23.3770000  
N 12.9450000   17.8120000   23.1260000  
O  9.5490000   16.6230000   24.5170000  
C 10.5930000   17.5160000   24.1490000  
O 10.5720000   18.6020000   24.6340000  
O 17.0230000   16.6430000   21.0200000  
O 16.0510000   14.0950000   20.6280000  
H 11.2360000   14.9670000   22.8160000  
H  9.6600000   15.8530000   23.8980000  
H 13.1900000   18.6520000   23.6910000  
H 17.1160000   17.6040000   21.1650000  
H 16.9760000   14.3770000   20.6360000  
C 15.5390000   18.8360000   22.1830000  
C 16.6820000   19.0570000   22.9240000  
C 17.1620000   20.3300000   22.8720000  
C 16.5690000   21.4510000   22.4180000  
C 15.4040000   21.2220000   21.6730000  
C 14.8990000   19.9110000   21.5690000  
C 17.6310000   18.2470000   23.6790000  
C 18.6700000   19.1190000   24.0480000  
N 18.2540000   20.4200000   23.6220000  
O 19.9550000   17.5530000   25.2160000  
C 19.9280000   18.8060000   24.7210000  
O 20.7460000   19.6270000   25.1010000  
O 14.7230000   22.2430000   21.0800000  
O 13.8470000   19.6640000   20.7510000  
H 17.5570000   17.2630000   23.9480000  
H 19.1530000   17.0860000   24.9130000  
H 18.6210000   21.2890000   23.9330000  
H 15.3880000   23.0010000   21.0160000  
H 13.6550000   18.6910000   20.7620000  
C 17.2000000   22.8270000   22.4860000  
C 17.9020000   23.4310000   21.4130000  
C 18.6020000   24.6090000   21.5370000  
C 18.8210000   25.1660000   22.7480000  
C 18.2490000   24.6090000   23.9030000  
C 17.4400000   23.4610000   23.8060000  
C 18.2090000   22.8880000   20.0890000  
C 19.0590000   23.8040000   19.3960000  
N 19.2910000   24.8390000   20.3400000  
O 18.8600000   22.6770000   17.3320000  
C 19.5180000   23.5830000   18.0590000  
O 20.5470000   24.1400000   17.6120000  
O 18.2610000   25.3540000   25.0660000  
O 16.8100000   23.0530000   24.9580000  
H 17.8120000   21.9620000   19.7000000  
H 18.2030000   22.1970000   17.9040000  
H 19.9130000   25.6720000   20.1390000  
H 17.7350000   24.9410000   25.6890000  
H 16.3810000   22.2160000   24.9010000  
H 19.4350000   26.0310000   22.8370000  
