76
010 
C 10.7580000   16.3420000   27.3700000  
C  9.4530000   16.3080000   26.6940000  
C  9.3760000   16.5910000   25.3380000  
C 10.5500000   16.9320000   24.5870000  
C 11.8310000   16.9980000   25.0870000  
C 12.1090000   16.6670000   26.5390000  
C  8.2860000   16.7430000   24.5070000  
C  8.7010000   17.1580000   23.2220000  
N 10.0730000   17.2400000   23.3070000  
O  6.6310000   17.2180000   22.2970000  
C  7.8740000   17.5670000   22.0780000  
O  8.2880000   18.0640000   21.0310000  
O 13.2440000   16.6740000   26.9300000  
O 10.8260000   15.9900000   28.5220000  
H  8.6550000   15.9390000   27.2430000  
H  7.2850000   16.5510000   24.8790000  
H  6.5530000   16.9420000   23.2100000  
H 10.6370000   17.5320000   22.4820000  
C 12.8990000   17.3000000   24.1530000  
C 13.5630000   18.5680000   24.2210000  
C 14.6530000   18.7390000   23.4520000  
C 15.1190000   17.8660000   22.4490000  
C 14.3950000   16.6360000   22.3070000  
C 13.3500000   16.2880000   23.2080000  
C 13.3860000   19.6990000   25.0880000  
C 14.4210000   20.5220000   24.7920000  
N 15.2560000   19.9240000   23.7440000  
O 13.9220000   22.1070000   26.5620000  
C 14.7220000   21.8130000   25.5100000  
O 15.5020000   22.6500000   25.1310000  
O 14.7730000   15.6890000   21.4340000  
O 12.8040000   15.0360000   23.1880000  
H 12.5800000   19.9230000   25.8050000  
H 13.2480000   21.5140000   26.7180000  
H 16.2490000   20.2320000   23.5200000  
H 15.5260000   16.0320000   20.8570000  
H 13.2060000   14.5120000   22.4420000  
C 16.1250000   18.3020000   21.4580000  
C 17.4910000   18.1650000   21.7340000  
C 18.4190000   18.5510000   20.8260000  
C 18.1420000   19.0210000   19.5170000  
C 16.7810000   19.0250000   19.1710000  
C 15.8040000   18.6930000   20.1140000  
C 18.1860000   17.6560000   22.9050000  
C 19.5650000   17.9720000   22.6820000  
N 19.7440000   18.2950000   21.2970000  
O 20.4680000   17.1850000   24.6830000  
C 20.7430000   17.5060000   23.4030000  
O 21.8890000   17.5330000   23.0750000  
O 16.3930000   19.4670000   17.9800000  
O 14.5090000   18.7730000   19.7740000  
H 17.7010000   17.3680000   23.8070000  
H 19.5160000   17.3180000   24.8500000  
H 20.5560000   18.0770000   20.7250000  
H 17.2480000   19.7910000   17.5830000  
H 14.5150000   18.9610000   18.8360000  
C 19.1900000   19.3390000   18.5350000  
C 19.4020000   18.4800000   17.4430000  
C 20.3950000   18.7470000   16.5280000  
C 21.2090000   19.8770000   16.5890000  
C 21.0930000   20.6430000   17.7370000  
C 20.0570000   20.4440000   18.6530000  
C 18.5700000   17.3720000   16.9600000  
C 19.1660000   16.9360000   15.8200000  
N 20.3010000   17.8080000   15.5500000  
O 17.7030000   15.0430000   15.6530000  
C 18.7350000   15.6810000   15.1030000  
O 19.2840000   15.2380000   14.0880000  
O 21.9790000   21.6950000   17.8820000  
O 19.8860000   21.2900000   19.7290000  
H 17.6980000   16.9240000   17.3660000  
H 17.5120000   15.7060000   16.3140000  
H 20.8100000   17.7660000   14.6810000  
H 21.8640000   22.1460000   18.7830000  
H 19.2940000   20.9040000   20.3930000  
H 21.9810000   20.0680000   15.8160000  
