76
010 
C 10.0620000   13.0340000   19.5470000  
C  9.1430000   13.3020000   20.6310000  
C  9.4510000   14.0780000   21.7390000  
C 10.7470000   14.6460000   21.8060000  
C 11.7010000   14.5870000   20.8220000  
C 11.4620000   13.8770000   19.5260000  
C  8.7560000   14.4790000   22.8680000  
C  9.5160000   15.4490000   23.6030000  
N 10.7470000   15.4450000   22.9320000  
O  7.7050000   16.0620000   24.9870000  
C  9.0550000   16.2160000   24.7820000  
O  9.8000000   17.0130000   25.3640000  
O 12.2350000   13.8970000   18.5710000  
O  9.8340000   12.2590000   18.6440000  
H  8.1370000   12.9150000   20.4590000  
H  7.7040000   14.1470000   23.0290000  
H  7.5310000   15.3960000   24.2720000  
H 11.5280000   16.0550000   23.1450000  
C 12.7590000   15.5960000   20.8810000  
C 14.1290000   15.2290000   21.1120000  
C 15.1080000   16.1550000   21.3700000  
C 14.8860000   17.5140000   21.3190000  
C 13.5290000   17.8910000   20.9960000  
C 12.5300000   17.0070000   20.7290000  
C 14.7560000   13.9550000   21.2820000  
C 16.0790000   14.1810000   21.7110000  
N 16.3290000   15.5520000   21.7600000  
O 16.7770000   11.8340000   22.0430000  
C 17.1100000   13.1420000   22.0040000  
O 18.2020000   13.4040000   22.4280000  
O 13.2490000   19.2230000   20.8940000  
O 11.2630000   17.4390000   20.4210000  
H 14.3110000   12.9550000   21.1730000  
H 15.8870000   11.6980000   21.6920000  
H 17.2190000   15.9750000   21.9360000  
H 14.0990000   19.7260000   21.0350000  
H 11.1650000   18.3180000   20.6940000  
C 16.0660000   18.4260000   21.5620000  
C 16.5180000   19.2100000   20.4210000  
C 17.6540000   19.9930000   20.5550000  
C 18.3480000   20.2420000   21.7800000  
C 17.7600000   19.6150000   23.0190000  
C 16.6740000   18.6600000   22.8530000  
C 16.0510000   19.3550000   19.0680000  
C 16.8850000   20.2620000   18.4920000  
N 17.8930000   20.6840000   19.3980000  
O 15.6220000   20.4390000   16.4620000  
C 16.7970000   20.6740000   17.0690000  
O 17.7740000   21.1870000   16.4750000  
O 18.5540000   19.5990000   24.1670000  
O 16.1300000   18.0480000   23.9390000  
H 15.1830000   18.8770000   18.6530000  
H 15.1640000   19.9690000   17.1290000  
H 18.6000000   21.4040000   19.1640000  
H 19.3840000   20.1280000   24.0420000  
H 16.4620000   18.4780000   24.7400000  
C 19.5260000   21.1150000   21.9840000  
C 19.5470000   22.2160000   22.8780000  
C 20.7550000   22.7960000   23.1790000  
C 21.9070000   22.4660000   22.4920000  
C 21.8740000   21.5280000   21.4640000  
C 20.6720000   20.8630000   21.2010000  
C 18.5570000   22.7010000   23.8010000  
C 19.2530000   23.4550000   24.6880000  
N 20.5400000   23.6350000   24.2740000  
O 17.5070000   23.7080000   26.1240000  
C 18.8210000   24.0310000   25.8980000  
O 19.4780000   24.7650000   26.5850000  
O 23.0660000   21.2920000   20.8080000  
O 20.7350000   19.8120000   20.3530000  
H 17.5090000   22.4130000   23.8030000  
H 17.3070000   23.1410000   25.3560000  
H 21.2150000   24.2930000   24.6250000  
H 23.0200000   20.6470000   20.0760000  
H 20.1170000   19.0890000   20.7360000  
H 22.8730000   22.9600000   22.7740000  
