76
010 
C 17.4680000   17.5820000   28.8370000  
C 18.2690000   16.2950000   28.9920000  
C 18.1530000   15.3480000   28.0030000  
C 17.5040000   15.6340000   26.7580000  
C 16.7720000   16.7520000   26.4780000  
C 16.6920000   17.8330000   27.4520000  
C 18.8640000   14.1610000   27.7850000  
C 18.6060000   13.6460000   26.4880000  
N 17.7760000   14.6050000   25.9120000  
O 19.5340000   11.5260000   26.9590000  
C 18.9850000   12.3070000   25.9880000  
O 18.6680000   11.9180000   24.9490000  
O 16.2280000   18.8870000   27.1150000  
O 17.3460000   18.5060000   29.6870000  
H 18.7830000   16.1310000   29.9400000  
H 19.6680000   13.7090000   28.3640000  
H 19.5300000   12.0840000   27.7430000  
H 17.3430000   14.5140000   25.0160000  
C 16.4010000   16.9860000   25.1090000  
C 15.0300000   16.9870000   24.7470000  
C 14.6040000   17.5110000   23.5900000  
C 15.4150000   17.8690000   22.5530000  
C 16.8310000   17.8180000   22.7700000  
C 17.3030000   17.4290000   24.0470000  
C 13.8790000   16.8440000   25.5650000  
C 12.7780000   17.1810000   24.8210000  
N 13.2340000   17.5560000   23.4840000  
O 11.1570000   16.4410000   26.3980000  
C 11.3680000   17.0160000   25.1710000  
O 10.4910000   17.3420000   24.4440000  
O 17.6850000   18.2360000   21.8200000  
O 18.6570000   17.3760000   24.3650000  
H 13.9230000   16.6900000   26.6500000  
H 11.9560000   16.2580000   26.8850000  
H 12.7250000   17.7430000   22.6430000  
H 17.1310000   18.5020000   21.1070000  
H 19.2080000   17.6870000   23.5620000  
C 14.9350000   18.3400000   21.2020000  
C 15.2380000   19.6500000   20.7960000  
C 14.7800000   20.0700000   19.5930000  
C 14.1260000   19.2400000   18.6720000  
C 14.0910000   17.8940000   19.0050000  
C 14.4400000   17.4260000   20.2680000  
C 15.8910000   20.8900000   21.3760000  
C 15.8580000   21.9200000   20.3480000  
N 15.0250000   21.4090000   19.3330000  
O 16.8270000   23.6630000   21.6400000  
C 16.3550000   23.3150000   20.4380000  
O 16.3850000   24.0660000   19.5180000  
O 13.6110000   17.0070000   18.1300000  
O 14.2980000   16.1200000   20.7040000  
H 16.4630000   20.9120000   22.2820000  
H 16.6550000   22.9600000   22.3240000  
H 14.6390000   21.8700000   18.5190000  
H 13.6770000   17.3140000   17.2290000  
H 13.7900000   15.5510000   20.0010000  
C 13.6240000   19.7550000   17.3330000  
C 14.4890000   19.7930000   16.2220000  
C 14.0290000   20.0700000   14.9410000  
C 12.6760000   20.3860000   14.6770000  
C 11.7250000   20.2830000   15.7380000  
C 12.1960000   19.9740000   17.0880000  
C 15.8910000   19.4770000   16.1160000  
C 16.1950000   19.4390000   14.7650000  
N 15.1110000   19.9260000   14.0620000  
O 18.3820000   18.5560000   14.9970000  
C 17.4590000   19.0530000   14.1580000  
O 17.7070000   18.9340000   12.9710000  
O 10.3730000   20.3370000   15.5770000  
O 11.3470000   20.0010000   18.1290000  
H 16.6340000   19.1260000   16.8990000  
H 18.0010000   18.5070000   15.9270000  
H 15.0260000   19.9880000   13.0570000  
H 10.0990000   20.3340000   14.6740000  
H 11.8960000   19.9400000   18.9100000  
H 12.4160000   20.5610000   13.6000000  
