76
010 
C 11.3590000   12.0230000   23.9250000  
C 10.0630000   12.3500000   23.3050000  
C  9.8200000   13.5720000   22.7580000  
C 10.8480000   14.4420000   22.5240000  
C 12.1780000   14.2450000   22.8670000  
C 12.5640000   13.0960000   23.7010000  
C  8.6630000   14.1710000   22.1570000  
C  9.0230000   15.4660000   21.6800000  
N 10.3480000   15.5500000   21.9080000  
O  6.7600000   16.2310000   21.3330000  
C  8.1120000   16.5640000   21.1620000  
O  8.5240000   17.5880000   20.7190000  
O 13.6420000   12.8330000   24.1590000  
O 11.5400000   10.9670000   24.5310000  
H  9.3240000   11.6020000   23.4210000  
H  7.6980000   13.6110000   22.1090000  
H  6.5910000   15.4230000   21.9000000  
H 10.9230000   16.3980000   21.9440000  
C 13.1960000   15.2790000   22.5700000  
C 13.6330000   16.1690000   23.5800000  
C 14.6400000   17.0490000   23.3330000  
C 15.2650000   17.2170000   22.0510000  
C 14.8660000   16.3320000   21.0550000  
C 13.8980000   15.2730000   21.3220000  
C 13.1760000   16.4380000   24.9340000  
C 13.8930000   17.5440000   25.3660000  
N 14.8100000   17.8650000   24.3950000  
O 12.6400000   17.8580000   27.3240000  
C 13.5450000   18.3600000   26.5630000  
O 14.0830000   19.4350000   26.7420000  
O 15.5120000   16.3450000   19.8530000  
O 13.4630000   14.3650000   20.3680000  
H 12.3240000   15.9580000   25.3800000  
H 12.6930000   16.9040000   27.0740000  
H 15.4390000   18.6710000   24.3850000  
H 15.9290000   17.2300000   19.8030000  
H 14.1640000   14.4270000   19.6660000  
C 16.1360000   18.3650000   21.8010000  
C 17.4630000   18.1850000   21.4250000  
C 18.3120000   19.1590000   21.1820000  
C 18.0260000   20.5740000   21.3410000  
C 16.6380000   20.8390000   21.6910000  
C 15.7340000   19.7760000   21.9150000  
C 18.2920000   16.9160000   21.3450000  
C 19.5350000   17.3180000   20.9010000  
N 19.5480000   18.7520000   20.8580000  
O 20.5130000   15.2210000   21.0400000  
C 20.7340000   16.5140000   20.7930000  
O 21.7730000   16.9670000   20.5890000  
O 16.2970000   22.1840000   21.8890000  
O 14.4070000   20.0350000   22.2220000  
H 17.9930000   15.8890000   21.5050000  
H 19.5860000   15.2880000   21.2900000  
H 20.3450000   19.3550000   20.6690000  
H 17.2100000   22.6740000   21.8190000  
H 13.9400000   19.1980000   22.5200000  
C 18.9640000   21.6800000   21.0460000  
C 19.2330000   22.0610000   19.7230000  
C 20.1300000   23.1070000   19.4390000  
C 20.7440000   23.8220000   20.4660000  
C 20.4620000   23.5120000   21.7870000  
C 19.6020000   22.4130000   22.0700000  
C 18.7780000   21.5680000   18.4430000  
C 19.3460000   22.4280000   17.5140000  
N 20.1770000   23.3930000   18.1320000  
O 18.3420000   21.4070000   15.6860000  
C 19.1560000   22.3340000   16.0650000  
O 19.7090000   23.0400000   15.2790000  
O 20.9590000   24.3080000   22.7650000  
O 19.1510000   22.1990000   23.3270000  
H 18.1330000   20.6580000   18.2440000  
H 18.1110000   20.8600000   16.4550000  
H 20.7490000   24.1800000   17.7480000  
H 21.7840000   24.8120000   22.5540000  
H 19.6520000   22.7510000   23.9530000  
H 21.3940000   24.6430000   20.1290000  
