76
010 
C 15.3910000   17.3670000   29.0280000  
C 16.3750000   16.4160000   29.4250000  
C 17.2130000   15.8710000   28.5470000  
C 17.2210000   16.1760000   27.1760000  
C 16.3890000   17.1040000   26.6550000  
C 15.4200000   17.8150000   27.5420000  
C 18.3840000   15.0970000   28.7360000  
C 19.0830000   14.9820000   27.5330000  
N 18.3190000   15.5980000   26.5590000  
O 21.0000000   13.9010000   28.5690000  
C 20.4580000   14.4570000   27.4380000  
O 21.1300000   14.5310000   26.4450000  
O 14.6270000   18.6220000   27.1870000  
O 14.6460000   17.9010000   29.8320000  
H 16.2720000   16.1490000   30.5020000  
H 18.6400000   14.8590000   29.7690000  
H 20.3640000   14.0190000   29.2440000  
H 18.6630000   15.6800000   25.6260000  
C 16.3330000   17.3170000   25.2000000  
C 15.3370000   16.6560000   24.4500000  
C 15.2110000   16.9390000   23.1390000  
C 16.0930000   17.7100000   22.4050000  
C 17.1720000   18.2370000   23.1330000  
C 17.2540000   18.0690000   24.5080000  
C 14.2410000   15.7830000   24.7720000  
C 13.5530000   15.5600000   23.5930000  
N 14.1960000   16.2560000   22.5840000  
O 11.9480000   14.0980000   24.5600000  
C 12.2930000   14.7660000   23.4790000  
O 11.6710000   14.5880000   22.4300000  
O 18.1120000   18.9130000   22.4420000  
O 18.3840000   18.5730000   25.0400000  
H 13.9220000   15.3990000   25.7150000  
H 12.3710000   14.4420000   25.3460000  
H 13.9770000   16.4350000   21.5790000  
H 17.9700000   18.8370000   21.4680000  
H 18.8900000   18.8660000   24.3140000  
C 15.8580000   18.0040000   20.9470000  
C 14.7530000   18.8140000   20.5300000  
C 14.4960000   19.1010000   19.1910000  
C 15.2570000   18.5680000   18.1380000  
C 16.3880000   17.7410000   18.5050000  
C 16.6390000   17.4130000   19.9060000  
C 13.7790000   19.5430000   21.2820000  
C 12.9020000   20.1900000   20.2930000  
N 13.3570000   19.7540000   18.9980000  
O 11.7410000   21.5480000   21.8090000  
C 11.8000000   21.1730000   20.5290000  
O 11.1220000   21.6790000   19.6100000  
O 17.3400000   17.3560000   17.5370000  
O 17.6610000   16.6470000   20.2930000  
H 13.5860000   19.7270000   22.3240000  
H 12.3560000   20.9470000   22.2560000  
H 13.0280000   19.9730000   18.0310000  
H 17.3090000   18.0590000   16.8130000  
H 17.3880000   16.3040000   21.1580000  
C 14.8820000   18.8550000   16.6900000  
C 15.0280000   20.1850000   16.2480000  
C 14.6450000   20.5080000   14.9510000  
C 13.9890000   19.5940000   14.0470000  
C 13.8600000   18.2770000   14.4650000  
C 14.2410000   17.9290000   15.7820000  
C 15.7410000   21.3080000   16.7330000  
C 15.4910000   22.3360000   15.8410000  
N 14.8580000   21.8610000   14.7250000  
O 16.3230000   24.0000000   17.2780000  
C 15.9440000   23.6450000   15.9970000  
O 15.9170000   24.4780000   15.1210000  
O 13.3370000   17.3630000   13.6500000  
O 13.8420000   16.7300000   16.3350000  
H 16.0900000   21.3590000   17.7240000  
H 16.1340000   23.3080000   17.8900000  
H 14.5050000   22.4070000   13.9110000  
H 13.0390000   17.6520000   12.8090000  
H 13.2610000   16.2880000   15.6970000  
H 13.5940000   19.8520000   13.0650000  
