76
010 
C 17.2760000   10.6400000   23.0820000  
C 16.2910000   10.5020000   24.2190000  
C 15.5170000   11.5730000   24.4990000  
C 15.5380000   12.7950000   23.8390000  
C 16.3970000   13.0580000   22.8270000  
C 17.3070000   12.0140000   22.2690000  
C 14.4110000   11.6340000   25.3640000  
C 13.8020000   12.8690000   25.2150000  
N 14.5240000   13.5710000   24.2730000  
O 12.0620000   12.4330000   26.7560000  
C 12.6380000   13.3530000   25.9210000  
O 12.2180000   14.4680000   25.7360000  
O 18.0020000   12.1330000   21.2410000  
O 18.1660000    9.7880000   22.9280000  
H 16.2600000    9.5790000   24.7580000  
H 14.0830000   10.7910000   25.9810000  
H 12.7030000   11.6600000   26.6030000  
H 14.1380000   14.3920000   23.8480000  
C 16.2780000   14.4230000   22.2420000  
C 17.1980000   15.3990000   22.6960000  
C 17.0740000   16.6750000   22.2990000  
C 16.0560000   17.1920000   21.5110000  
C 15.0950000   16.2170000   21.1120000  
C 15.1940000   14.8710000   21.4300000  
C 18.4680000   15.2950000   23.3980000  
C 18.9680000   16.6010000   23.5320000  
N 18.1160000   17.4400000   22.8080000  
O 20.7850000   15.9250000   24.8790000  
C 20.1860000   16.9840000   24.3100000  
O 20.6060000   18.1110000   24.4160000  
O 13.9260000   16.5500000   20.4630000  
O 14.3170000   13.9750000   21.0720000  
H 18.8090000   14.4240000   23.9070000  
H 20.3500000   15.1710000   24.3550000  
H 18.2300000   18.4610000   22.6520000  
H 13.9210000   17.5150000   20.2140000  
H 13.7700000   14.4020000   20.3710000  
C 15.9600000   18.5900000   21.3100000  
C 16.1590000   19.2220000   20.0480000  
C 15.9940000   20.5840000   19.8710000  
C 15.5100000   21.4460000   20.8660000  
C 15.1770000   20.8460000   22.1470000  
C 15.4300000   19.4680000   22.3670000  
C 16.5830000   18.6800000   18.7420000  
C 16.6130000   19.7580000   17.8780000  
N 16.3050000   20.9360000   18.5830000  
O 16.8600000   18.5430000   16.0070000  
C 16.9410000   19.7470000   16.5060000  
O 17.2320000   20.7100000   15.8690000  
O 14.7710000   21.6230000   23.1620000  
O 15.1710000   18.8930000   23.5300000  
H 16.8750000   17.6420000   18.5340000  
H 16.5950000   18.0880000   16.8460000  
H 16.2630000   21.8600000   18.1090000  
H 14.9560000   22.5770000   22.8800000  
H 15.4690000   17.9730000   23.5060000  
C 15.1610000   22.8910000   20.5640000  
C 13.8370000   23.2890000   20.6120000  
C 13.5090000   24.6200000   20.2260000  
C 14.4170000   25.6180000   19.8970000  
C 15.8130000   25.2360000   19.9100000  
C 16.1340000   23.8830000   20.1890000  
C 12.5610000   22.6940000   20.8860000  
C 11.5870000   23.6960000   20.6440000  
N 12.2070000   24.9300000   20.3430000  
O  9.5670000   22.4310000   21.2620000  
C 10.0800000   23.5960000   20.6940000  
O  9.3510000   24.5590000   20.3760000  
O 16.7670000   26.1790000   19.7110000  
O 17.4770000   23.5810000   20.2080000  
H 12.3810000   21.6380000   21.0230000  
H 10.3640000   21.9820000   21.5600000  
H 11.7880000   25.7180000   19.8640000  
H 16.1730000   26.9580000   19.5240000  
H 17.9380000   24.3260000   19.7780000  
H 14.1900000   26.6930000   19.7160000  
