76
011 
C 17.5720000   18.8830000   29.0600000  
C 16.3840000   19.6160000   29.4700000  
C 15.5910000   20.2480000   28.5640000  
C 15.8370000   20.2830000   27.2200000  
C 16.8490000   19.5370000   26.6050000  
C 17.7790000   18.7880000   27.4960000  
C 14.3810000   21.0160000   28.7840000  
C 13.8820000   21.4580000   27.5510000  
N 14.8510000   21.0160000   26.6600000  
O 12.0560000   22.6540000   28.4840000  
C 12.7070000   22.3760000   27.3120000  
O 12.3410000   22.7440000   26.2000000  
O 18.6620000   18.1010000   26.9690000  
O 18.3290000   18.3790000   29.8960000  
H 16.2880000   19.7230000   30.5780000  
H 13.9900000   21.3190000   29.7400000  
H 12.7260000   22.4830000   29.1780000  
H 14.8600000   21.3560000   25.7230000  
C 16.9680000   19.5300000   25.1190000  
C 18.1600000   19.8600000   24.4280000  
C 18.2630000   19.7110000   23.0830000  
C 17.3520000   19.1890000   22.2450000  
C 16.1600000   18.7570000   22.8410000  
C 15.9540000   18.9520000   24.2680000  
C 19.4470000   20.2590000   24.9270000  
C 20.2760000   20.3450000   23.7930000  
N 19.5400000   19.9460000   22.6620000  
O 22.2170000   21.0770000   24.9380000  
C 21.6640000   20.7980000   23.7500000  
O 22.2190000   20.9030000   22.7140000  
O 15.0840000   18.0340000   22.2020000  
O 14.7700000   18.5270000   24.9140000  
H 19.5820000   20.7180000   25.8760000  
H 21.4860000   20.8860000   25.4930000  
H 19.9430000   20.1640000   21.7500000  
H 15.0780000   18.0280000   21.2160000  
H 14.1040000   18.4350000   24.1450000  
C 17.6930000   19.0030000   20.8030000  
C 18.6990000   18.1000000   20.4110000  
C 19.0270000   17.8290000   19.1750000  
C 18.3190000   18.4460000   18.0510000  
C 17.2460000   19.2500000   18.3730000  
C 16.9430000   19.5560000   19.7160000  
C 19.4900000   17.2220000   21.2190000  
C 20.1040000   16.3530000   20.3310000  
N 19.9040000   16.7780000   19.0150000  
O 21.2870000   15.0800000   21.9480000  
C 21.0490000   15.2770000   20.6460000  
O 21.6830000   14.7240000   19.7410000  
O 16.4320000   19.7460000   17.3600000  
O 15.8880000   20.3950000   20.0470000  
H 19.5100000   17.3190000   22.3110000  
H 20.6840000   15.7330000   22.3330000  
H 20.2500000   16.3680000   18.1480000  
H 16.7110000   19.2830000   16.5440000  
H 15.2090000   20.4950000   19.3280000  
C 18.5150000   18.0100000   16.5980000  
C 18.0750000   16.7150000   16.2270000  
C 18.0800000   16.2740000   14.9360000  
C 18.7070000   17.0600000   13.9580000  
C 19.1270000   18.3560000   14.2380000  
C 19.0740000   18.8390000   15.6070000  
C 17.4830000   15.6040000   17.0340000  
C 17.0890000   14.6090000   16.1290000  
N 17.5590000   15.0180000   14.8530000  
O 16.1600000   13.2350000   17.7980000  
C 16.3470000   13.3580000   16.4770000  
O 15.9550000   12.4730000   15.7600000  
O 19.6440000   19.0890000   13.2920000  
O 19.5110000   20.0930000   15.8930000  
H 17.4210000   15.5170000   18.0850000  
H 16.6280000   14.0160000   18.1660000  
H 17.5590000   14.4210000   14.0280000  
H 20.0050000   19.8700000   13.6460000  
H 19.6430000   20.0480000   16.8560000  
H 18.6730000   16.7090000   12.9090000  
