76
010 
C  8.9920000   13.8320000   22.1510000  
C  8.5370000   14.3150000   23.4340000  
C  9.2200000   15.3030000   24.0420000  
C 10.4380000   15.7090000   23.6780000  
C 11.0840000   15.3390000   22.5500000  
C 10.3640000   14.4110000   21.6210000  
C  8.8590000   16.0860000   25.2170000  
C  9.9150000   16.9610000   25.5050000  
N 10.8990000   16.6940000   24.5140000  
O  8.8880000   18.3740000   27.1690000  
C  9.9920000   18.1050000   26.4300000  
O 10.8000000   18.9260000   26.4180000  
O 10.7820000   14.1230000   20.5270000  
O  8.3240000   13.0380000   21.5590000  
H  7.5920000   13.9690000   23.7440000  
H  7.8920000   15.9380000   25.7540000  
H  8.1890000   17.6960000   26.9090000  
H 11.7980000   17.0580000   24.3090000  
C 12.3530000   16.0860000   22.1770000  
C 13.5330000   15.9260000   22.8680000  
C 14.6250000   16.7300000   22.6360000  
C 14.6030000   17.7750000   21.6690000  
C 13.4520000   17.9200000   20.9320000  
C 12.3600000   17.0560000   21.1500000  
C 13.9200000   15.1250000   23.9890000  
C 15.2200000   15.4250000   24.3670000  
N 15.6070000   16.5170000   23.5670000  
O 15.5200000   13.8660000   26.1930000  
C 16.0900000   14.8000000   25.3790000  
O 17.2730000   15.1030000   25.4280000  
O 13.3890000   18.8590000   19.9290000  
O 11.2780000   17.1350000   20.2980000  
H 13.3700000   14.3370000   24.3840000  
H 14.7400000   13.6810000   25.6360000  
H 16.4680000   17.0290000   23.5530000  
H 14.3080000   19.1310000   19.6240000  
H 11.5340000   17.8650000   19.6470000  
C 15.7720000   18.6430000   21.5110000  
C 16.8950000   18.1080000   20.8880000  
C 17.9800000   18.8740000   20.6940000  
C 18.1160000   20.2800000   21.0950000  
C 17.0300000   20.8180000   21.8270000  
C 15.8960000   20.0290000   21.9570000  
C 17.1880000   16.8000000   20.4370000  
C 18.4750000   16.8720000   19.9080000  
N 18.9860000   18.1680000   20.1340000  
O 18.3460000   14.6610000   19.1000000  
C 19.0830000   15.7420000   19.2430000  
O 20.2040000   15.8700000   18.8410000  
O 17.0210000   22.0930000   22.4080000  
O 14.8330000   20.5400000   22.7430000  
H 16.5460000   15.9260000   20.3960000  
H 17.5710000   15.0360000   19.5220000  
H 19.8320000   18.6330000   19.7600000  
H 17.9690000   22.3990000   22.5080000  
H 14.1380000   19.9460000   22.9050000  
C 19.4010000   21.0280000   20.8600000  
C 19.7220000   21.5760000   19.6350000  
C 21.0020000   22.1920000   19.4480000  
C 22.0320000   22.1990000   20.3640000  
C 21.6650000   21.7360000   21.6360000  
C 20.3910000   21.1570000   21.9200000  
C 19.0000000   21.6040000   18.3660000  
C 19.8310000   22.3160000   17.4780000  
N 21.0210000   22.6030000   18.1540000  
O 18.3870000   22.0490000   15.6320000  
C 19.5830000   22.5600000   16.0180000  
O 20.3950000   23.0400000   15.2380000  
O 22.6670000   21.6620000   22.5880000  
O 20.1550000   20.5950000   23.0680000  
H 17.9510000   21.2740000   18.2030000  
H 17.7940000   22.0170000   16.4280000  
H 21.7420000   23.2350000   17.7890000  
H 23.5500000   21.7720000   22.2300000  
H 20.8570000   20.7110000   23.7200000  
H 23.0790000   22.4790000   20.1430000  
