76
011 
C 16.6480000   18.7450000   29.2350000  
C 18.0050000   18.7240000   29.6510000  
C 18.9540000   18.9870000   28.7340000  
C 18.7820000   19.0830000   27.4000000  
C 17.5880000   19.1230000   26.7910000  
C 16.3410000   19.0900000   27.6410000  
C 20.3420000   19.1660000   28.9350000  
C 20.9990000   19.3390000   27.7300000  
N 19.9880000   19.4010000   26.8220000  
O 23.2420000   19.8550000   28.4720000  
C 22.4600000   19.6380000   27.3930000  
O 22.8660000   19.6490000   26.2370000  
O 15.2320000   19.1500000   27.1940000  
O 15.7480000   18.4910000   30.0370000  
H 18.2580000   18.6260000   30.7120000  
H 20.8000000   19.1820000   29.9280000  
H 22.5180000   20.0510000   29.1240000  
H 20.1270000   19.5190000   25.7810000  
C 17.7000000   19.0360000   25.3480000  
C 18.2670000   17.9290000   24.6580000  
C 18.2800000   17.8170000   23.2750000  
C 17.9020000   18.8920000   22.4630000  
C 17.2370000   19.9710000   23.1260000  
C 17.1440000   20.0730000   24.5700000  
C 19.1460000   16.9270000   25.1500000  
C 19.6360000   16.1790000   24.0200000  
N 19.2030000   16.8960000   22.8910000  
O 20.3540000   14.3030000   25.2400000  
C 20.3830000   14.9050000   24.0650000  
O 20.8580000   14.3500000   23.0910000  
O 16.7270000   21.1170000   22.4730000  
O 16.3320000   21.0270000   25.2230000  
H 19.1810000   16.6100000   26.1830000  
H 20.0810000   14.9830000   25.9250000  
H 19.4520000   16.6160000   21.9070000  
H 16.8800000   20.9390000   21.4860000  
H 15.7760000   21.4150000   24.5600000  
C 17.9850000   18.8070000   20.9810000  
C 17.2680000   17.7620000   20.3240000  
C 17.1500000   17.6910000   18.9710000  
C 17.7780000   18.6590000   18.0980000  
C 18.3930000   19.7280000   18.7460000  
C 18.4680000   19.7960000   20.0950000  
C 16.5030000   16.6060000   20.8060000  
C 15.8930000   16.0580000   19.6790000  
N 16.3500000   16.7190000   18.4960000  
O 14.4560000   14.4720000   20.8280000  
C 14.8600000   14.9990000   19.6870000  
O 14.5180000   14.5340000   18.5920000  
O 18.8610000   20.7110000   17.9170000  
O 19.1610000   20.8650000   20.5770000  
H 16.4770000   16.2200000   21.8060000  
H 14.9100000   15.1200000   21.4510000  
H 16.1350000   16.4700000   17.5600000  
H 19.2360000   20.1750000   17.1560000  
H 19.4540000   21.3800000   19.8450000  
C 17.5100000   18.6550000   16.6290000  
C 16.5950000   19.5260000   16.1070000  
C 16.2300000   19.3650000   14.7780000  
C 16.6910000   18.3700000   13.9180000  
C 17.7490000   17.5440000   14.4220000  
C 18.1930000   17.7050000   15.7820000  
C 15.7380000   20.4820000   16.6030000  
C 14.7940000   20.7970000   15.6580000  
N 15.1220000   20.1380000   14.4910000  
O 13.4750000   22.2730000   17.0520000  
C 13.6480000   21.7500000   15.8270000  
O 12.8310000   21.8720000   14.9480000  
O 18.2420000   16.5110000   13.7150000  
O 19.1520000   16.9850000   16.3170000  
H 15.6510000   20.7770000   17.6420000  
H 14.1930000   21.9080000   17.6100000  
H 14.6430000   20.1360000   13.5950000  
H 19.0140000   16.0240000   14.1540000  
H 19.1260000   17.0230000   17.2720000  
H 16.3770000   18.1620000   12.8830000  
