76
011 
C 18.0940000   10.8060000   21.8160000  
C 17.2230000   10.5240000   23.0040000  
C 16.9450000   11.5200000   23.9080000  
C 17.1980000   12.8750000   23.5880000  
C 17.6480000   13.3410000   22.3630000  
C 18.2140000   12.3340000   21.4220000  
C 16.1080000   11.5390000   25.0920000  
C 15.9830000   12.8790000   25.4960000  
N 16.6110000   13.6480000   24.4690000  
O 14.3020000   12.4450000   27.1350000  
C 15.1430000   13.3540000   26.6160000  
O 15.1170000   14.4980000   27.0220000  
O 18.8440000   12.5670000   20.4030000  
O 18.5970000    9.9510000   21.1260000  
H 16.9210000    9.4920000   23.2370000  
H 15.5920000   10.6990000   25.5040000  
H 14.6300000   11.5860000   26.8210000  
H 16.6760000   14.6550000   24.4680000  
C 17.6360000   14.7710000   22.1000000  
C 18.3890000   15.6410000   22.8510000  
C 18.3720000   16.9950000   22.4860000  
C 17.6740000   17.6250000   21.4880000  
C 16.9280000   16.7250000   20.6970000  
C 16.9220000   15.3080000   20.9520000  
C 19.1390000   15.5160000   24.0960000  
C 19.6130000   16.7920000   24.2690000  
N 19.1430000   17.7360000   23.3800000  
O 20.8860000   16.1220000   26.1720000  
C 20.2900000   17.1600000   25.5220000  
O 20.3730000   18.2330000   26.0480000  
O 16.2140000   17.2850000   19.5970000  
O 16.1590000   14.5910000   20.0510000  
H 19.3290000   14.6440000   24.6470000  
H 20.7070000   15.3370000   25.5970000  
H 19.4120000   18.6960000   23.3250000  
H 16.5590000   18.2050000   19.5150000  
H 15.9380000   15.2350000   19.2670000  
C 17.4940000   19.1050000   21.4010000  
C 18.5880000   19.8460000   20.8290000  
C 18.5160000   21.1740000   20.8090000  
C 17.3450000   21.9420000   21.1610000  
C 16.3400000   21.2170000   21.8560000  
C 16.4450000   19.8180000   21.9990000  
C 19.7190000   19.4130000   20.0710000  
C 20.3150000   20.5590000   19.6160000  
N 19.6160000   21.7010000   20.1390000  
O 22.0080000   19.4830000   18.2590000  
C 21.4730000   20.6420000   18.7400000  
O 21.9010000   21.6820000   18.2090000  
O 15.3400000   21.8840000   22.3820000  
O 15.5180000   19.1230000   22.7820000  
H 20.0560000   18.4010000   19.7860000  
H 21.5350000   18.8070000   18.6900000  
H 19.9600000   22.6370000   19.9810000  
H 15.3270000   22.8160000   22.0430000  
H 14.8830000   19.7940000   22.9600000  
C 17.4290000   23.4060000   21.0290000  
C 17.0330000   24.0730000   19.8840000  
C 17.0330000   25.4040000   19.6970000  
C 17.4010000   26.1600000   20.7300000  
C 17.9340000   25.5960000   21.9210000  
C 17.9670000   24.1710000   22.1060000  
C 16.3970000   23.4740000   18.7100000  
C 16.0500000   24.5170000   17.8330000  
N 16.4280000   25.7180000   18.4770000  
O 14.9270000   23.1610000   16.3400000  
C 15.4040000   24.4020000   16.5470000  
O 15.3340000   25.2630000   15.6690000  
O 18.3150000   26.4030000   23.0060000  
O 18.4450000   23.5540000   23.1970000  
H 16.1480000   22.4730000   18.5870000  
H 15.0470000   22.6800000   17.2020000  
H 16.4250000   26.6690000   18.0690000  
H 18.4320000   25.7900000   23.7730000  
H 18.3170000   22.6430000   22.9670000  
H 17.2630000   27.2030000   20.6500000  
