76
011 
C 10.5130000   16.8050000   20.1820000  
C  9.9020000   16.4250000   21.5330000  
C 10.6780000   16.3360000   22.6490000  
C 12.0250000   16.7180000   22.6290000  
C 12.6840000   17.1840000   21.4960000  
C 11.9620000   17.3020000   20.2430000  
C 10.4570000   15.9630000   24.0590000  
C 11.7220000   16.0050000   24.7550000  
N 12.6080000   16.5090000   23.8100000  
O 10.8950000   15.0780000   26.7100000  
C 12.0000000   15.5800000   26.0940000  
O 13.1000000   15.6170000   26.6410000  
O 12.5410000   17.6230000   19.2280000  
O  9.7930000   16.9350000   19.2190000  
H  8.8800000   16.0370000   21.4290000  
H  9.4880000   15.5690000   24.3460000  
H 10.2330000   14.8910000   26.0450000  
H 13.6040000   16.6990000   23.9110000  
C 14.1120000   17.5620000   21.6700000  
C 15.1790000   16.6510000   21.8170000  
C 16.4200000   17.1370000   21.9390000  
C 16.8710000   18.4540000   21.6990000  
C 15.7730000   19.4290000   21.6420000  
C 14.3960000   18.9670000   21.6840000  
C 15.1970000   15.2470000   21.9120000  
C 16.5240000   14.9080000   22.0040000  
N 17.2980000   16.0800000   22.1010000  
O 16.2880000   12.5480000   22.0590000  
C 17.1470000   13.5790000   21.8910000  
O 18.3010000   13.4230000   21.5620000  
O 16.0930000   20.7380000   21.6170000  
O 13.3930000   19.8590000   21.7820000  
H 14.4250000   14.5310000   21.8510000  
H 15.4270000   12.8610000   22.0290000  
H 18.2650000   16.0630000   22.0840000  
H 17.0260000   20.8480000   21.4020000  
H 13.8590000   20.7350000   21.7060000  
C 18.2940000   18.8580000   21.7880000  
C 18.9150000   19.1860000   20.5760000  
C 20.2300000   19.5780000   20.4770000  
C 21.1650000   19.5460000   21.5680000  
C 20.5480000   19.1580000   22.8020000  
C 19.1190000   18.8230000   22.9170000  
C 18.3550000   19.2640000   19.2160000  
C 19.4050000   19.7550000   18.4160000  
N 20.5320000   20.0630000   19.2260000  
O 18.1250000   19.1550000   16.4760000  
C 19.2840000   19.7900000   16.9170000  
O 20.1460000   20.3950000   16.2570000  
O 21.2270000   19.0930000   23.9350000  
O 18.5190000   18.4830000   24.1540000  
H 17.4070000   18.9080000   18.9990000  
H 17.7200000   18.8320000   17.2860000  
H 21.4650000   20.1610000   18.9410000  
H 22.1440000   19.3140000   23.6840000  
H 19.1880000   18.3150000   24.8390000  
C 22.5640000   19.9310000   21.3380000  
C 23.0480000   21.1020000   21.9810000  
C 24.3170000   21.5730000   21.7960000  
C 25.2550000   20.8410000   21.0810000  
C 24.8000000   19.6250000   20.5100000  
C 23.4830000   19.1470000   20.6840000  
C 22.3150000   22.1510000   22.6510000  
C 23.2630000   23.1290000   22.9370000  
N 24.4900000   22.7670000   22.2840000  
O 21.7540000   24.6330000   24.0570000  
C 23.0130000   24.4320000   23.6140000  
O 23.9710000   25.1840000   23.8570000  
O 25.7440000   18.8820000   19.8640000  
O 23.0320000   17.9450000   20.2020000  
H 21.2370000   22.1220000   22.8410000  
H 21.1780000   23.9570000   23.6500000  
H 25.2710000   23.3630000   22.2340000  
H 25.2840000   18.0380000   19.6020000  
H 22.2530000   17.7050000   20.7700000  
H 26.2620000   21.2210000   20.9430000  
