76
011 
C 12.7290000   20.4180000   27.5490000  
C 11.6200000   19.5750000   27.0190000  
C 11.7990000   18.7440000   26.0100000  
C 12.9380000   18.7880000   25.2220000  
C 14.0040000   19.6160000   25.4260000  
C 14.1220000   20.3430000   26.7470000  
C 10.9400000   17.7830000   25.3330000  
C 11.6200000   17.2250000   24.2580000  
N 12.8940000   17.8570000   24.2600000  
O  9.8900000   15.6360000   23.7480000  
C 11.0840000   16.1130000   23.3550000  
O 11.7070000   15.5220000   22.4940000  
O 15.0400000   20.9240000   27.1590000  
O 12.5150000   21.1160000   28.4950000  
H 10.7690000   19.7060000   27.6860000  
H  9.9170000   17.4970000   25.6120000  
H  9.4660000   16.1230000   24.4160000  
H 13.6410000   17.5700000   23.7140000  
C 15.1390000   19.4330000   24.4530000  
C 15.0760000   20.0860000   23.2100000  
C 16.0130000   19.8780000   22.2510000  
C 17.1590000   18.9920000   22.4580000  
C 17.3310000   18.5370000   23.7790000  
C 16.3100000   18.7620000   24.7070000  
C 14.1000000   20.9600000   22.6560000  
C 14.4260000   21.0870000   21.3160000  
N 15.5940000   20.3840000   21.0240000  
O 12.6980000   22.5360000   20.7560000  
C 13.7220000   21.7740000   20.2920000  
O 13.9770000   21.6470000   19.0810000  
O 18.3640000   17.6740000   24.1220000  
O 16.4850000   18.2270000   25.8900000  
H 13.2740000   21.5270000   23.1570000  
H 12.7510000   22.4380000   21.6800000  
H 16.0260000   20.2410000   20.1550000  
H 18.7720000   17.3390000   23.3020000  
H 17.3250000   17.6760000   25.9950000  
C 18.2060000   18.7440000   21.3710000  
C 19.4960000   19.3340000   21.3300000  
C 20.4210000   18.9500000   20.4170000  
C 20.1930000   17.9990000   19.4070000  
C 18.9420000   17.3570000   19.4000000  
C 17.9790000   17.6950000   20.4190000  
C 20.1740000   20.3600000   22.1760000  
C 21.4850000   20.4400000   21.6670000  
N 21.6200000   19.6670000   20.5620000  
O 22.4180000   21.9910000   23.3100000  
C 22.6600000   21.3070000   22.1120000  
O 23.7820000   21.3530000   21.6420000  
O 18.6210000   16.5500000   18.3330000  
O 16.7690000   17.0540000   20.3010000  
H 19.7920000   20.9070000   22.9720000  
H 21.4560000   21.8610000   23.5750000  
H 22.4570000   19.6530000   19.9370000  
H 19.4370000   16.3870000   17.8640000  
H 16.7220000   16.5060000   19.4230000  
C 21.1920000   17.7320000   18.3550000  
C 22.1340000   16.6600000   18.4180000  
C 23.1370000   16.4200000   17.5070000  
C 23.3040000   17.3410000   16.4700000  
C 22.3860000   18.4130000   16.3280000  
C 21.3240000   18.6350000   17.2730000  
C 22.2570000   15.6190000   19.3870000  
C 23.2410000   14.7530000   18.9420000  
N 23.8500000   15.2770000   17.8170000  
O 23.0770000   13.1110000   20.6440000  
C 23.7440000   13.4960000   19.5000000  
O 24.5990000   12.8640000   19.0170000  
O 22.5350000   19.3600000   15.3620000  
O 20.4630000   19.7840000   17.2530000  
H 21.6500000   15.6000000   20.2840000  
H 22.4050000   13.8180000   20.8350000  
H 24.6120000   14.8930000   17.2720000  
H 21.8010000   19.9570000   15.5990000  
H 19.8940000   19.6710000   18.0400000  
H 24.1030000   17.2490000   15.7930000  
