76
011 
C 18.4690000   12.6570000   26.5370000  
C 19.6490000   13.0240000   27.4020000  
C 20.1660000   14.2360000   27.1880000  
C 19.8130000   15.1140000   26.2050000  
C 18.7050000   15.0050000   25.4160000  
C 18.0010000   13.7020000   25.4900000  
C 21.2690000   14.8310000   27.8270000  
C 21.5660000   16.0450000   27.2590000  
N 20.6200000   16.2070000   26.2480000  
O 23.4630000   16.5620000   28.6710000  
C 22.5980000   17.0020000   27.6870000  
O 22.7840000   18.1290000   27.2290000  
O 17.1000000   13.4750000   24.7260000  
O 17.9320000   11.5490000   26.6310000  
H 19.9680000   12.2430000   28.1200000  
H 21.6810000   14.4430000   28.7680000  
H 23.1900000   15.6640000   28.8650000  
H 20.4560000   16.9580000   25.6240000  
C 18.3730000   16.0240000   24.3940000  
C 19.1040000   16.1550000   23.2460000  
C 18.8610000   17.0500000   22.2640000  
C 17.7770000   17.9440000   22.2440000  
C 16.9850000   17.8310000   23.3940000  
C 17.2930000   16.9130000   24.4480000  
C 20.3810000   15.5310000   22.9290000  
C 20.6930000   15.9070000   21.6170000  
N 19.8060000   16.9790000   21.2710000  
O 22.4900000   14.5670000   21.5060000  
C 21.8430000   15.5040000   20.8290000  
O 22.1170000   15.8810000   19.6890000  
O 15.9040000   18.7060000   23.4440000  
O 16.3980000   16.8130000   25.4120000  
H 20.8940000   14.7060000   23.4870000  
H 21.9320000   14.3730000   22.3500000  
H 19.7820000   17.4980000   20.4580000  
H 16.3070000   19.5050000   23.0150000  
H 15.6590000   17.3880000   25.1500000  
C 17.6280000   18.9180000   21.1240000  
C 16.5070000   18.9840000   20.2910000  
C 16.2720000   19.9530000   19.3920000  
C 17.1260000   21.0010000   19.1580000  
C 18.3160000   20.9690000   19.9350000  
C 18.4790000   19.9730000   20.9880000  
C 15.4050000   18.0990000   20.1810000  
C 14.4380000   18.6260000   19.3900000  
N 15.0230000   19.7900000   18.7730000  
O 12.8570000   16.8560000   19.5180000  
C 13.0690000   18.0820000   19.0070000  
O 12.2110000   18.6970000   18.3980000  
O 19.2450000   22.0060000   19.9050000  
O 19.4770000   20.1610000   21.8770000  
H 15.3490000   17.1340000   20.7210000  
H 13.6100000   16.6880000   20.1050000  
H 14.6050000   20.4320000   18.1700000  
H 18.7460000   22.8480000   19.8780000  
H 20.2340000   20.5570000   21.4130000  
C 16.8160000   21.9920000   18.0860000  
C 15.6890000   22.8030000   18.1730000  
C 15.2930000   23.6730000   17.1340000  
C 16.1930000   23.9330000   16.0790000  
C 17.3380000   23.1110000   15.9300000  
C 17.5920000   22.1280000   16.9070000  
C 14.6170000   22.8060000   19.1430000  
C 13.6800000   23.7450000   18.7330000  
N 14.1530000   24.2990000   17.5650000  
O 12.1490000   23.0250000   20.3730000  
C 12.3910000   23.9060000   19.4300000  
O 11.5730000   24.7900000   19.2260000  
O 17.9880000   23.3040000   14.7180000  
O 18.5510000   21.1830000   16.6960000  
H 14.6250000   22.2500000   20.0370000  
H 12.6770000   22.3190000   20.1770000  
H 13.6780000   25.0490000   17.1080000  
H 18.8620000   22.8680000   14.6020000  
H 18.4840000   20.5450000   17.4770000  
H 15.8460000   24.4840000   15.2020000  
