76
011 
C 15.2600000   11.0860000   21.1700000  
C 14.6020000   10.9330000   22.5130000  
C 14.7410000   11.9970000   23.4230000  
C 15.3380000   13.2690000   23.1680000  
C 15.8380000   13.6500000   21.9060000  
C 15.6460000   12.6590000   20.7980000  
C 14.3380000   12.0590000   24.7910000  
C 14.6060000   13.3750000   25.2650000  
N 15.2420000   14.0780000   24.2300000  
O 13.7250000   13.0010000   27.4430000  
C 14.3540000   13.8330000   26.6190000  
O 14.8160000   14.8420000   27.0970000  
O 15.9320000   12.8980000   19.6300000  
O 15.4360000   10.1150000   20.4960000  
H 14.0260000   10.0160000   22.7350000  
H 13.9430000   11.2660000   25.3990000  
H 13.3980000   12.2410000   26.9180000  
H 15.4150000   15.0770000   24.3000000  
C 16.2750000   15.0710000   21.7690000  
C 17.6310000   15.2800000   21.6660000  
C 18.1110000   16.5330000   21.6890000  
C 17.2990000   17.6930000   21.7410000  
C 15.8920000   17.5570000   21.7380000  
C 15.3730000   16.2180000   21.8160000  
C 18.8510000   14.4850000   21.7380000  
C 19.9700000   15.3810000   21.7900000  
N 19.4790000   16.6690000   21.6890000  
O 21.7830000   13.8120000   21.6760000  
C 21.4060000   15.0520000   21.8880000  
O 22.2390000   15.9360000   22.0110000  
O 15.0440000   18.5920000   21.7940000  
O 14.0080000   16.0810000   21.7870000  
H 18.8760000   13.4220000   21.8850000  
H 21.0070000   13.3520000   21.3840000  
H 19.9840000   17.5310000   21.6810000  
H 15.5670000   19.4310000   21.8510000  
H 13.6800000   16.9890000   21.7580000  
C 17.9260000   19.0650000   21.6480000  
C 18.5010000   19.5130000   20.4540000  
C 18.8270000   20.8240000   20.2850000  
C 18.7920000   21.8480000   21.2720000  
C 18.4650000   21.3620000   22.5900000  
C 18.0370000   19.9930000   22.7300000  
C 18.7210000   18.8990000   19.1750000  
C 19.2790000   19.8700000   18.3400000  
N 19.2970000   21.0590000   18.9940000  
O 19.7460000   18.3760000   16.5900000  
C 19.8760000   19.6400000   17.0550000  
O 20.6870000   20.4000000   16.5710000  
O 18.5460000   22.2240000   23.6220000  
O 17.4180000   19.6040000   23.8940000  
H 18.6130000   17.7930000   18.9820000  
H 19.0450000   17.8820000   17.1550000  
H 19.8710000   21.8370000   18.7090000  
H 18.9270000   23.0640000   23.2780000  
H 17.3460000   20.3680000   24.4680000  
C 19.3280000   23.2340000   21.0240000  
C 18.5150000   24.3660000   21.2000000  
C 19.0960000   25.6520000   21.0760000  
C 20.3910000   25.7930000   20.6430000  
C 21.1640000   24.6950000   20.3880000  
C 20.6820000   23.4190000   20.6590000  
C 17.2550000   24.4930000   21.8260000  
C 17.0180000   25.8900000   21.9400000  
N 18.1070000   26.5540000   21.4400000  
O 14.8830000   25.5420000   23.0690000  
C 15.8580000   26.4470000   22.6460000  
O 15.7690000   27.6670000   22.8640000  
O 22.4220000   24.7800000   19.9410000  
O 21.5660000   22.3770000   20.6320000  
H 16.5690000   23.7190000   22.1580000  
H 15.2750000   24.6670000   22.9860000  
H 18.1840000   27.5560000   21.2230000  
H 22.7680000   23.8280000   20.0080000  
H 21.1570000   21.7310000   21.1840000  
H 20.7750000   26.7870000   20.3440000  
