76
011 
C 14.9580000   22.7220000   27.4610000  
C 15.0740000   21.8260000   28.6030000  
C 15.8780000   20.6800000   28.4830000  
C 16.4260000   20.2610000   27.3230000  
C 16.2420000   20.9280000   26.1180000  
C 15.4910000   22.2090000   26.0890000  
C 16.1800000   19.6910000   29.4380000  
C 16.9980000   18.7620000   28.8250000  
N 17.0670000   19.1470000   27.4820000  
O 17.4130000   17.4440000   30.6610000  
C 17.7800000   17.6700000   29.4220000  
O 18.5960000   16.9880000   28.8070000  
O 15.2740000   22.8580000   25.0400000  
O 14.4510000   23.8510000   27.6040000  
H 14.5770000   22.0640000   29.5550000  
H 15.8380000   19.6830000   30.5000000  
H 16.7570000   18.0980000   30.9450000  
H 17.5720000   18.6720000   26.7360000  
C 16.7980000   20.3770000   24.9010000  
C 15.8850000   19.7150000   24.0310000  
C 16.3060000   19.1610000   22.8660000  
C 17.6640000   19.2650000   22.4200000  
C 18.5770000   20.0460000   23.2110000  
C 18.1170000   20.6510000   24.4080000  
C 14.4660000   19.3260000   24.2150000  
C 14.1460000   18.4960000   23.1500000  
N 15.3410000   18.3850000   22.3220000  
O 11.9390000   17.8020000   23.9240000  
C 12.8870000   17.7510000   22.9030000  
O 12.7850000   16.9650000   22.0020000  
O 19.7630000   20.4890000   22.7830000  
O 18.8760000   21.6470000   25.0010000  
H 13.8140000   19.4710000   25.0270000  
H 12.3120000   18.5090000   24.5830000  
H 15.3380000   17.8510000   21.5350000  
H 19.9620000   20.1520000   21.9190000  
H 19.7970000   21.5980000   24.6440000  
C 18.0540000   18.5380000   21.1530000  
C 17.3890000   18.6270000   19.9110000  
C 17.8300000   18.0040000   18.7630000  
C 18.9070000   17.1700000   18.7810000  
C 19.6670000   17.0940000   19.9920000  
C 19.1410000   17.6830000   21.1320000  
C 16.2760000   19.3660000   19.4780000  
C 15.9940000   19.0180000   18.1420000  
N 17.0800000   18.2380000   17.6340000  
O 14.1270000   20.6260000   17.9100000  
C 14.8180000   19.5250000   17.3600000  
O 14.6100000   19.0560000   16.2480000  
O 20.8580000   16.4570000   20.1420000  
O 19.8290000   17.5190000   22.3470000  
H 15.6920000   20.1050000   20.1460000  
H 14.3520000   20.6880000   18.8800000  
H 17.2870000   17.9910000   16.6960000  
H 21.0810000   16.0250000   19.3170000  
H 20.7830000   17.4200000   22.1860000  
C 19.3520000   16.3490000   17.5460000  
C 20.5890000   16.4900000   16.8910000  
C 20.9920000   15.6530000   15.9260000  
C 20.2290000   14.5830000   15.5330000  
C 19.0270000   14.2980000   16.1750000  
C 18.5450000   15.2090000   17.1500000  
C 21.6720000   17.4390000   17.0870000  
C 22.6690000   17.1310000   16.1120000  
N 22.1980000   16.0150000   15.3580000  
O 24.0140000   18.8870000   16.8860000  
C 23.9340000   17.9290000   15.9520000  
O 24.7980000   17.7480000   15.0940000  
O 18.2740000   13.2710000   15.6710000  
O 17.2900000   14.9610000   17.6300000  
H 21.6450000   18.2550000   17.8200000  
H 23.3130000   18.7210000   17.5380000  
H 22.6490000   15.4770000   14.5820000  
H 17.7610000   12.9220000   16.4290000  
H 16.9960000   15.7530000   18.0890000  
H 20.5910000   13.9390000   14.7630000  
