76
011 
C  9.9010000   17.8840000   21.7120000  
C  9.7270000   17.0700000   22.9190000  
C 10.8770000   16.7910000   23.6500000  
C 12.1670000   17.1810000   23.2510000  
C 12.4640000   17.8940000   22.0800000  
C 11.3340000   18.3180000   21.2560000  
C 11.1220000   16.0230000   24.8250000  
C 12.4560000   15.9550000   25.1520000  
N 13.0780000   16.7160000   24.1350000  
O 12.3560000   14.7150000   27.1250000  
C 13.1700000   15.3060000   26.2850000  
O 14.3980000   15.2380000   26.3390000  
O 11.4990000   18.8650000   20.1790000  
O  8.9550000   18.2920000   20.9730000  
H  8.7490000   16.8560000   23.3140000  
H 10.4330000   15.4740000   25.4670000  
H 11.5150000   14.7540000   26.6750000  
H 14.0310000   16.9550000   24.0460000  
C 13.8340000   18.1660000   21.8180000  
C 14.6930000   17.1730000   21.3960000  
C 16.0090000   17.3450000   21.4210000  
C 16.6650000   18.5640000   21.5680000  
C 15.8150000   19.6720000   21.9700000  
C 14.3890000   19.4420000   22.0930000  
C 14.4140000   15.7780000   21.0730000  
C 15.6780000   15.2280000   20.7660000  
N 16.6940000   16.2130000   21.0220000  
O 14.9000000   13.1060000   20.0680000  
C 15.9870000   13.9090000   20.2260000  
O 17.0720000   13.4390000   19.9750000  
O 16.3810000   20.9300000   22.1320000  
O 13.6150000   20.4730000   22.5080000  
H 13.4860000   15.2990000   20.9940000  
H 14.2630000   13.6370000   20.4560000  
H 17.6470000   16.0500000   21.0840000  
H 17.3400000   20.8250000   22.0630000  
H 14.2190000   21.2630000   22.4080000  
C 18.1640000   18.7660000   21.4840000  
C 18.7620000   19.3660000   20.2980000  
C 20.1220000   19.6140000   20.2530000  
C 21.0300000   19.2580000   21.2220000  
C 20.4460000   18.6090000   22.3910000  
C 19.0550000   18.4800000   22.5260000  
C 18.2840000   19.7460000   19.0310000  
C 19.2940000   20.2550000   18.2300000  
N 20.4830000   20.1630000   19.0320000  
O 18.0190000   20.7930000   16.3570000  
C 19.2850000   20.7300000   16.8190000  
O 20.3020000   21.0350000   16.1820000  
O 21.2920000   18.2430000   23.4140000  
O 18.4950000   17.9350000   23.5870000  
H 17.3460000   19.6130000   18.5780000  
H 17.5350000   20.6380000   17.1990000  
H 21.4080000   20.5160000   18.7440000  
H 22.2100000   18.1570000   23.1290000  
H 19.1130000   18.0760000   24.3030000  
C 22.5240000   19.3540000   21.1000000  
C 23.1820000   20.2840000   21.9640000  
C 24.5030000   20.5000000   21.8660000  
C 25.3490000   19.8870000   20.9380000  
C 24.7580000   18.9140000   20.1350000  
C 23.3950000   18.6210000   20.2300000  
C 22.7910000   21.2240000   22.9590000  
C 23.9030000   21.8850000   23.4860000  
N 24.9680000   21.4240000   22.7370000  
O 22.8500000   23.8010000   24.6350000  
C 24.0130000   23.1030000   24.3750000  
O 25.0600000   23.4900000   24.8100000  
O 25.5160000   18.2610000   19.2110000  
O 22.8820000   17.6740000   19.3880000  
H 21.7780000   21.3280000   23.3410000  
H 22.0890000   23.2400000   24.2860000  
H 25.8820000   21.6760000   22.8270000  
H 24.7710000   17.8630000   18.7360000  
H 22.0280000   17.3180000   19.6540000  
H 26.3420000   20.2710000   20.8520000  
