76
011 
C 12.1290000   13.1470000   21.3350000  
C 12.4000000   12.4620000   22.5510000  
C 13.5830000   12.6870000   23.2640000  
C 14.3930000   13.7090000   22.9580000  
C 14.1370000   14.6280000   21.9810000  
C 13.0060000   14.3980000   21.1420000  
C 14.1440000   12.0740000   24.4450000  
C 15.3420000   12.6950000   24.7520000  
N 15.4150000   13.7690000   23.8330000  
O 15.6980000   11.6280000   26.9090000  
C 16.2170000   12.3500000   25.9090000  
O 17.3280000   12.8560000   26.0460000  
O 12.6650000   15.1510000   20.2510000  
O 11.2710000   12.7840000   20.5430000  
H 11.8170000   11.6410000   22.7330000  
H 13.5870000   11.2980000   24.9720000  
H 14.8610000   11.2600000   26.6460000  
H 16.2000000   14.5210000   23.8530000  
C 15.0500000   15.7880000   21.8580000  
C 16.3210000   15.6620000   21.3610000  
C 17.2230000   16.7240000   21.4690000  
C 16.9390000   17.9740000   22.0510000  
C 15.5940000   18.1500000   22.4180000  
C 14.6430000   17.0910000   22.3620000  
C 16.9660000   14.6050000   20.6390000  
C 18.2410000   15.1210000   20.3160000  
N 18.3710000   16.4560000   20.7520000  
O 18.7050000   13.3430000   18.8160000  
C 19.2180000   14.4800000   19.3910000  
O 20.2710000   14.9820000   19.1210000  
O 15.1600000   19.3860000   22.9270000  
O 13.3900000   17.3490000   22.8100000  
H 16.5390000   13.6540000   20.3220000  
H 17.8310000   13.0890000   19.2030000  
H 19.2160000   17.0430000   20.6930000  
H 15.7220000   20.0910000   22.6140000  
H 13.2030000   18.3230000   22.9950000  
C 17.9260000   19.1350000   21.8910000  
C 17.7910000   19.9180000   20.6770000  
C 18.6440000   20.9380000   20.4500000  
C 19.6930000   21.3360000   21.3130000  
C 19.9240000   20.4630000   22.3560000  
C 19.0440000   19.4590000   22.7800000  
C 16.8050000   19.9610000   19.6480000  
C 17.1120000   21.0490000   18.8180000  
N 18.1560000   21.7090000   19.4030000  
O 15.6820000   20.4460000   17.1010000  
C 16.5840000   21.3790000   17.4870000  
O 16.9070000   22.3190000   16.8260000  
O 21.0800000   20.6000000   23.0260000  
O 19.3670000   18.6090000   23.7910000  
H 16.2190000   19.0810000   19.3450000  
H 15.7050000   19.7410000   17.7410000  
H 18.6450000   22.4960000   19.0120000  
H 21.5310000   21.4620000   22.8100000  
H 20.1400000   18.9480000   24.2710000  
C 20.6630000   22.5020000   20.9780000  
C 21.0290000   23.4720000   22.0160000  
C 21.9210000   24.5360000   21.8180000  
C 22.6600000   24.6680000   20.6040000  
C 22.4050000   23.7930000   19.5690000  
C 21.4260000   22.7020000   19.7090000  
C 20.4810000   23.6440000   23.3560000  
C 21.0830000   24.8040000   23.9060000  
N 22.0560000   25.2660000   23.0030000  
O 20.0040000   24.5920000   25.9890000  
C 20.8390000   25.3320000   25.2310000  
O 21.4040000   26.3010000   25.6530000  
O 22.9880000   24.0260000   18.3510000  
O 21.3350000   21.8170000   18.7170000  
H 19.8240000   22.9590000   23.9290000  
H 19.7420000   23.7910000   25.4220000  
H 22.8060000   25.8850000   23.2150000  
H 22.9420000   23.4110000   17.5830000  
H 20.8680000   21.0310000   18.9550000  
H 23.2430000   25.5730000   20.4680000  
