76
011 
C 11.2710000   15.8910000   24.9430000  
C 10.9060000   14.8110000   24.0500000  
C 11.5280000   14.7330000   22.8490000  
C 12.6450000   15.5740000   22.4370000  
C 13.2080000   16.4350000   23.3320000  
C 12.5130000   16.7810000   24.6170000  
C 11.3230000   13.7690000   21.7920000  
C 12.2320000   14.0100000   20.7580000  
N 13.0350000   15.0950000   21.1930000  
O 11.4170000   12.3800000   19.2190000  
C 12.3500000   13.3170000   19.4630000  
O 13.2710000   13.6660000   18.6570000  
O 12.9270000   17.6040000   25.4340000  
O 10.6950000   16.0050000   26.0020000  
H 10.0450000   14.1580000   24.3270000  
H 10.4480000   13.0480000   21.8780000  
H 10.8280000   12.1780000   19.9430000  
H 13.6990000   15.5340000   20.6110000  
C 14.4770000   16.9700000   22.9260000  
C 14.6200000   18.3330000   22.5680000  
C 15.8330000   18.8320000   22.1670000  
C 17.0830000   18.1340000   22.1420000  
C 16.9530000   16.6910000   22.4570000  
C 15.6930000   16.2040000   22.9130000  
C 13.7120000   19.4030000   22.4280000  
C 14.3710000   20.4850000   21.8750000  
N 15.7820000   20.1720000   21.8170000  
O 12.4710000   21.9670000   21.5580000  
C 13.8180000   21.7490000   21.3820000  
O 14.5030000   22.6620000   20.9290000  
O 18.0230000   15.8380000   22.4510000  
O 15.5490000   14.8900000   23.1080000  
H 12.5980000   19.3870000   22.5710000  
H 12.0850000   21.1940000   21.9490000  
H 16.5210000   20.7990000   21.8060000  
H 18.7960000   16.3630000   22.1750000  
H 16.4080000   14.4620000   23.0680000  
C 18.3680000   18.8120000   21.6600000  
C 18.8530000   19.9280000   22.3510000  
C 19.9850000   20.4960000   21.9690000  
C 20.8650000   19.9920000   20.8830000  
C 20.3060000   18.9030000   20.2330000  
C 19.1350000   18.2480000   20.6400000  
C 18.3390000   20.6300000   23.4750000  
C 19.2200000   21.6450000   23.6630000  
N 20.2630000   21.5560000   22.7620000  
O 17.8830000   22.8980000   25.1810000  
C 19.0420000   22.8360000   24.5310000  
O 19.8680000   23.6720000   24.6360000  
O 20.8790000   18.5160000   19.0230000  
O 18.6750000   17.2520000   19.8220000  
H 17.3230000   20.4830000   23.9300000  
H 17.4990000   22.0240000   25.0070000  
H 21.1000000   22.0730000   22.8210000  
H 21.7370000   19.0210000   19.0230000  
H 19.4560000   16.9900000   19.3330000  
C 22.1660000   20.6660000   20.6120000  
C 23.3610000   19.9150000   20.4330000  
C 24.5140000   20.3920000   19.9040000  
C 24.5970000   21.7280000   19.4760000  
C 23.3630000   22.4210000   19.4500000  
C 22.1650000   21.8930000   19.9930000  
C 23.5760000   18.4980000   20.7230000  
C 24.8910000   18.1870000   20.4400000  
N 25.4600000   19.4050000   19.8960000  
O 24.6840000   16.0150000   21.0670000  
C 25.5250000   16.8650000   20.5730000  
O 26.7050000   16.6490000   20.2430000  
O 23.3160000   23.6520000   18.8620000  
O 21.0310000   22.6790000   19.8940000  
H 22.8660000   17.7870000   21.1240000  
H 23.9240000   16.6190000   21.2700000  
H 26.4000000   19.5870000   19.5450000  
H 22.4830000   24.1360000   18.9640000  
H 20.2090000   22.2630000   19.9540000  
H 25.5460000   22.2440000   19.1280000  
