76
011 
C 20.7090000   14.9040000   27.8100000  
C 21.0290000   13.5290000   27.3370000  
C 20.7880000   13.2130000   26.0270000  
C 20.2680000   14.1880000   25.1370000  
C 19.8350000   15.4480000   25.4570000  
C 20.1420000   15.9780000   26.7880000  
C 20.8670000   11.9950000   25.2910000  
C 20.4120000   12.2880000   23.9850000  
N 20.0700000   13.6550000   23.8870000  
O 21.0100000   10.1890000   22.9360000  
C 20.4570000   11.3910000   22.8140000  
O 20.2050000   11.8350000   21.7290000  
O 20.0200000   17.1340000   27.0720000  
O 20.9140000   15.3670000   28.9000000  
H 21.4630000   12.8480000   28.0280000  
H 21.3180000   11.0550000   25.6070000  
H 21.0580000   10.0360000   23.8570000  
H 19.6660000   14.1270000   23.1160000  
C 19.1930000   16.1840000   24.3060000  
C 17.8670000   16.5590000   24.3540000  
C 17.3160000   17.3010000   23.4060000  
C 18.0160000   17.8380000   22.2980000  
C 19.4360000   17.6840000   22.3650000  
C 19.9960000   16.8570000   23.3740000  
C 16.8280000   16.2770000   25.3130000  
C 15.7660000   17.1210000   24.9570000  
N 16.0610000   17.7290000   23.7010000  
O 14.6250000   16.7320000   26.9350000  
C 14.6150000   17.3780000   25.7670000  
O 13.7020000   18.1080000   25.3880000  
O 20.2630000   18.3140000   21.5110000  
O 21.3620000   16.5780000   23.4500000  
H 16.8800000   15.6010000   26.1020000  
H 15.3900000   16.2170000   26.9160000  
H 15.5090000   18.3170000   23.1190000  
H 19.6360000   18.9650000   21.0730000  
H 21.8110000   16.7970000   22.5680000  
C 17.3880000   18.7970000   21.2990000  
C 17.7610000   20.1590000   21.0480000  
C 17.0480000   20.9650000   20.2060000  
C 15.9730000   20.5670000   19.4530000  
C 15.5940000   19.2220000   19.5470000  
C 16.2670000   18.3420000   20.4810000  
C 18.5790000   21.1140000   21.7810000  
C 18.3770000   22.3910000   21.2770000  
N 17.4270000   22.2960000   20.2510000  
O 20.0730000   23.4510000   22.6040000  
C 19.2130000   23.5490000   21.5760000  
O 19.1250000   24.5750000   20.9890000  
O 14.5580000   18.7490000   18.7890000  
O 15.7700000   17.0430000   20.5410000  
H 19.3430000   20.9190000   22.5310000  
H 20.0830000   22.5310000   22.9360000  
H 17.0910000   23.1610000   19.6890000  
H 14.2140000   19.4890000   18.2660000  
H 15.0390000   16.9890000   19.9160000  
C 15.1720000   21.5310000   18.6460000  
C 15.5880000   21.8340000   17.3010000  
C 14.8350000   22.6860000   16.5200000  
C 13.5870000   23.1580000   16.9330000  
C 13.1380000   22.8360000   18.2040000  
C 13.9720000   22.0400000   19.1320000  
C 16.8970000   21.5560000   16.6460000  
C 16.7750000   22.2140000   15.4410000  
N 15.5890000   22.8790000   15.3450000  
O 19.0350000   21.8940000   14.7760000  
C 17.8540000   22.3640000   14.4080000  
O 17.6840000   22.8550000   13.3240000  
O 11.8990000   23.3540000   18.5730000  
O 13.5020000   21.8820000   20.3780000  
H 17.6190000   20.8620000   17.0020000  
H 18.8530000   21.5250000   15.6340000  
H 15.2660000   23.5210000   14.5440000  
H 11.7020000   23.0950000   19.4570000  
H 14.0090000   21.2240000   20.8180000  
H 12.9820000   23.6530000   16.2020000  
