76
011 
C 11.2170000   21.2310000   24.8660000  
C 11.8510000   21.9800000   25.9170000  
C 13.2510000   21.9690000   26.0770000  
C 14.0350000   21.1000000   25.3220000  
C 13.5100000   20.4040000   24.2660000  
C 12.1240000   20.4590000   23.8520000  
C 14.0530000   22.5730000   27.0480000  
C 15.3670000   22.0630000   26.8550000  
N 15.2940000   21.1540000   25.7990000  
O 16.1310000   23.3760000   28.6580000  
C 16.4680000   22.4260000   27.7800000  
O 17.5780000   21.8840000   27.6750000  
O 11.6460000   19.9090000   22.8710000  
O  9.9610000   21.1830000   24.7580000  
H 11.2490000   22.4400000   26.6590000  
H 13.6570000   23.2350000   27.8290000  
H 15.3200000   23.8310000   28.4390000  
H 16.0330000   20.5200000   25.5320000  
C 14.5360000   19.7040000   23.4090000  
C 15.0440000   18.4290000   23.7230000  
C 16.2040000   18.0180000   23.1100000  
C 16.9270000   18.7470000   22.1810000  
C 16.3690000   19.9560000   21.7570000  
C 15.1900000   20.4240000   22.4220000  
C 14.7320000   17.3960000   24.7410000  
C 15.6520000   16.3850000   24.6170000  
N 16.6750000   16.8490000   23.7170000  
O 14.8580000   14.7840000   26.2700000  
C 15.7340000   15.0680000   25.3280000  
O 16.6620000   14.2840000   25.0570000  
O 16.9870000   20.6780000   20.8390000  
O 14.8230000   21.6770000   22.0900000  
H 13.9510000   17.3490000   25.5070000  
H 14.3300000   15.6270000   26.4740000  
H 17.5880000   16.4440000   23.5470000  
H 17.5950000   20.1760000   20.2270000  
H 15.2990000   21.8670000   21.2610000  
C 18.1900000   18.2610000   21.5020000  
C 18.1170000   17.1540000   20.6140000  
C 19.2460000   16.7710000   19.9130000  
C 20.4710000   17.4050000   19.9800000  
C 20.5510000   18.4220000   21.0020000  
C 19.4420000   18.8020000   21.7520000  
C 16.9800000   16.3490000   20.1730000  
C 17.4870000   15.5740000   19.1290000  
N 18.8930000   15.8400000   18.9560000  
O 15.3690000   14.7640000   18.4640000  
C 16.7130000   14.6940000   18.2900000  
O 17.1120000   14.0580000   17.3430000  
O 21.7650000   18.9340000   21.2780000  
O 19.5190000   19.8520000   22.6180000  
H 15.9470000   16.2520000   20.6220000  
H 15.2310000   15.4550000   19.1420000  
H 19.5290000   15.5130000   18.2320000  
H 22.4070000   18.3500000   20.8730000  
H 20.3810000   19.9870000   22.9890000  
C 21.6480000   17.0120000   19.1780000  
C 22.0410000   17.6850000   18.0120000  
C 23.1550000   17.3400000   17.3140000  
C 23.8970000   16.2260000   17.6530000  
C 23.4460000   15.4770000   18.7480000  
C 22.3340000   15.8500000   19.5020000  
C 21.5340000   18.9050000   17.4530000  
C 22.3330000   19.1350000   16.2900000  
N 23.4090000   18.2210000   16.3110000  
O 21.2070000   20.9820000   15.5140000  
C 22.2220000   20.1420000   15.2430000  
O 22.8370000   20.2730000   14.1700000  
O 24.1160000   14.2940000   19.1110000  
O 21.8980000   15.0390000   20.5630000  
H 20.5170000   19.2350000   17.6610000  
H 20.7820000   20.6520000   16.3260000  
H 24.0820000   18.0830000   15.5670000  
H 23.6200000   13.9790000   19.8770000  
H 21.0860000   15.3860000   20.9040000  
H 24.7690000   15.9710000   17.1420000  
