76
011 
C 10.9620000   14.6410000   20.1030000  
C 10.4230000   14.6900000   21.4700000  
C 11.0800000   15.4920000   22.4230000  
C 12.2790000   16.2030000   22.1790000  
C 12.9630000   16.1730000   20.9780000  
C 12.3860000   15.4090000   19.8420000  
C 10.7420000   15.7320000   23.7780000  
C 11.7330000   16.5620000   24.3900000  
N 12.6290000   16.8240000   23.3930000  
O 10.8290000   16.6440000   26.5270000  
C 11.8610000   16.9980000   25.8440000  
O 12.7500000   17.6980000   26.3010000  
O 12.8740000   15.3980000   18.7220000  
O 10.3550000   14.0260000   19.2150000  
H  9.5080000   14.1740000   21.6110000  
H  9.8270000   15.3810000   24.2080000  
H 10.1000000   16.4680000   25.9730000  
H 13.4870000   17.1900000   23.6040000  
C 14.2790000   16.7840000   20.9450000  
C 15.3660000   16.2150000   21.5980000  
C 16.5790000   16.8560000   21.7650000  
C 16.9300000   18.1310000   21.1690000  
C 15.7780000   18.7640000   20.5910000  
C 14.4820000   18.0470000   20.4480000  
C 15.5220000   15.0050000   22.3470000  
C 16.8380000   14.9060000   22.7890000  
N 17.4810000   16.0950000   22.4830000  
O 16.6940000   12.6840000   23.6370000  
C 17.4220000   13.8060000   23.6080000  
O 18.4210000   13.8520000   24.2810000  
O 15.9270000   20.0120000   20.0800000  
O 13.4520000   18.7020000   19.7320000  
H 14.6460000   14.3190000   22.5140000  
H 15.8990000   12.9340000   23.2290000  
H 18.4340000   16.3460000   22.7110000  
H 16.8870000   20.2410000   20.0640000  
H 13.7950000   19.5870000   19.5100000  
C 18.2510000   18.7960000   21.3810000  
C 18.9690000   19.2420000   20.2640000  
C 20.1650000   19.8710000   20.3700000  
C 20.9270000   19.9590000   21.5370000  
C 20.2160000   19.5870000   22.7280000  
C 18.8730000   19.0640000   22.6380000  
C 18.7340000   19.1680000   18.8070000  
C 19.7980000   19.7530000   18.1350000  
N 20.6800000   20.1730000   19.1420000  
O 19.0300000   19.1260000   15.9520000  
C 20.1260000   19.5550000   16.7080000  
O 21.2480000   19.7830000   16.2510000  
O 20.8680000   19.6440000   23.9690000  
O 18.2000000   18.8070000   23.7550000  
H 17.9330000   18.7180000   18.3160000  
H 18.3540000   18.9690000   16.6320000  
H 21.6180000   20.3740000   18.9720000  
H 21.6550000   20.2360000   23.8500000  
H 18.6320000   19.3350000   24.4610000  
C 22.3250000   20.5540000   21.6180000  
C 22.4750000   21.9100000   22.0990000  
C 23.7380000   22.4290000   22.1970000  
C 24.9230000   21.6360000   22.0430000  
C 24.7700000   20.3110000   21.5330000  
C 23.4950000   19.8050000   21.2970000  
C 21.5910000   22.9040000   22.6060000  
C 22.3540000   24.0060000   23.0420000  
N 23.6590000   23.6720000   22.8380000  
O 20.5650000   25.1780000   23.9720000  
C 21.9090000   25.1850000   23.7710000  
O 22.6890000   26.0320000   24.1800000  
O 25.9080000   19.5810000   21.1740000  
O 23.3340000   18.4520000   21.0520000  
H 20.5550000   22.7940000   22.5750000  
H 20.2830000   24.3500000   23.6590000  
H 24.4640000   24.1890000   23.1200000  
H 25.5830000   18.6530000   21.0000000  
H 22.3440000   18.4100000   21.0060000  
H 25.8370000   22.1460000   22.2150000  
