76
011 
C 10.3100000   17.8380000   24.1140000  
C 10.1260000   19.0230000   24.9050000  
C 11.1780000   19.8020000   25.0740000  
C 12.3470000   19.7860000   24.3280000  
C 12.6200000   18.7810000   23.4610000  
C 11.5950000   17.7130000   23.2810000  
C 11.2880000   21.0530000   25.8230000  
C 12.4580000   21.7280000   25.4090000  
N 13.1160000   20.8360000   24.5640000  
O 12.1730000   23.6810000   26.7120000  
C 12.8890000   23.1320000   25.7530000  
O 13.8270000   23.7360000   25.2150000  
O 11.7470000   16.8140000   22.4420000  
O  9.4130000   17.0320000   24.1200000  
H  9.1410000   19.1930000   25.4060000  
H 10.4280000   21.4050000   26.4010000  
H 11.6570000   22.9670000   27.0790000  
H 14.0340000   20.9550000   24.2130000  
C 13.9400000   18.7570000   22.7360000  
C 15.1160000   18.7170000   23.4940000  
C 16.2960000   18.6940000   22.8860000  
C 16.5150000   18.7400000   21.5010000  
C 15.3540000   18.7840000   20.6740000  
C 14.0690000   18.7350000   21.3070000  
C 15.3800000   18.6450000   24.9770000  
C 16.7750000   18.4820000   25.1020000  
N 17.3550000   18.5650000   23.8220000  
O 16.9260000   18.3030000   27.4440000  
C 17.6310000   18.2990000   26.2970000  
O 18.8470000   18.0720000   26.2930000  
O 15.5320000   18.7640000   19.3870000  
O 12.9840000   18.9530000   20.4650000  
H 14.7550000   18.7630000   25.8340000  
H 16.0310000   18.3670000   27.1160000  
H 18.3410000   18.3840000   23.5920000  
H 16.3680000   19.2110000   19.3020000  
H 13.3340000   19.1750000   19.5740000  
C 17.9550000   18.7380000   20.8340000  
C 18.8110000   17.6030000   21.1190000  
C 20.1540000   17.5130000   20.7480000  
C 20.7640000   18.5560000   20.0910000  
C 19.9450000   19.7040000   19.8430000  
C 18.5670000   19.8420000   20.1810000  
C 18.5530000   16.2780000   21.6720000  
C 19.7230000   15.5100000   21.5880000  
N 20.7800000   16.3010000   21.0610000  
O 18.7660000   13.3800000   21.8800000  
C 19.8600000   14.1140000   21.8270000  
O 20.9640000   13.6270000   21.7620000  
O 20.4630000   20.7700000   19.1730000  
O 17.9350000   21.1260000   20.0360000  
H 17.6630000   15.8400000   22.0790000  
H 18.0320000   13.9780000   22.1100000  
H 21.7180000   15.9850000   20.9100000  
H 21.3110000   20.5180000   18.7980000  
H 18.5520000   21.7600000   19.6900000  
C 22.2780000   18.4650000   19.7130000  
C 22.7780000   18.3090000   18.3870000  
C 24.0980000   18.2330000   18.1000000  
C 25.0290000   18.1960000   19.1330000  
C 24.6000000   18.1440000   20.4910000  
C 23.2100000   18.3240000   20.7640000  
C 22.0530000   18.0860000   17.1670000  
C 23.0520000   17.7950000   16.2400000  
N 24.2810000   18.0840000   16.7660000  
O 21.5290000   17.2130000   14.6000000  
C 22.7270000   17.6440000   14.7900000  
O 23.5630000   17.7320000   13.9140000  
O 25.4940000   17.8940000   21.4500000  
O 22.8080000   18.3920000   22.0700000  
H 20.9870000   18.2140000   16.9410000  
H 21.2380000   17.1770000   15.5550000  
H 25.1670000   18.0150000   16.3470000  
H 25.2700000   18.2270000   22.3150000  
H 21.9450000   18.8260000   22.1390000  
H 26.0800000   18.2160000   18.9520000  
