76
011 
C 16.5720000   22.9560000   27.7600000  
C 16.5640000   22.0390000   28.8920000  
C 16.7270000   20.7040000   28.6920000  
C 16.8010000   20.1120000   27.3820000  
C 16.8500000   20.8730000   26.2700000  
C 16.8470000   22.3740000   26.3350000  
C 16.7590000   19.5570000   29.5720000  
C 17.0490000   18.3960000   28.8050000  
N 16.9740000   18.7410000   27.4400000  
O 17.3340000   16.9550000   30.7000000  
C 17.4220000   17.1030000   29.3510000  
O 17.8830000   16.2150000   28.6480000  
O 17.0900000   23.0880000   25.3130000  
O 16.4840000   24.1340000   27.8890000  
H 16.5920000   22.5020000   29.8480000  
H 16.8590000   19.6480000   30.6810000  
H 16.8650000   17.6600000   31.2150000  
H 17.0320000   18.0500000   26.6620000  
C 17.0870000   20.2670000   24.9570000  
C 16.0000000   19.6900000   24.2650000  
C 16.2660000   19.1450000   23.0340000  
C 17.5570000   18.9230000   22.5040000  
C 18.6090000   19.3950000   23.3260000  
C 18.3770000   20.1270000   24.5230000  
C 14.5790000   19.5080000   24.4600000  
C 14.0880000   18.7620000   23.3700000  
N 15.1670000   18.5390000   22.4980000  
O 11.9760000   18.3500000   24.2230000  
C 12.8080000   18.0210000   23.2510000  
O 12.5430000   17.2520000   22.3990000  
O 19.9160000   19.1960000   22.9660000  
O 19.5240000   20.6450000   25.1100000  
H 14.0720000   19.7030000   25.3650000  
H 12.4200000   19.1110000   24.7320000  
H 14.9910000   18.0930000   21.6540000  
H 20.0020000   18.9910000   22.0390000  
H 20.2260000   20.9170000   24.4540000  
C 17.7190000   18.1920000   21.2090000  
C 17.1450000   18.6890000   19.9740000  
C 17.4900000   18.1830000   18.7610000  
C 18.3530000   17.0650000   18.5000000  
C 18.9080000   16.5140000   19.7040000  
C 18.5590000   16.9980000   20.9840000  
C 16.6010000   20.0510000   19.7250000  
C 16.3800000   20.0940000   18.3530000  
N 17.0490000   19.0210000   17.8000000  
O 15.2150000   22.1600000   18.3610000  
C 15.7420000   21.1630000   17.5830000  
O 15.7510000   21.1910000   16.3800000  
O 19.7550000   15.4360000   19.6970000  
O 19.0530000   16.4090000   22.1490000  
H 16.2100000   20.8020000   20.4100000  
H 15.2660000   21.7850000   19.3100000  
H 17.2200000   18.9150000   16.7790000  
H 19.6810000   15.0420000   18.7950000  
H 19.4770000   15.5570000   21.9330000  
C 18.6300000   16.5330000   17.1230000  
C 19.9340000   16.4610000   16.6380000  
C 20.2530000   15.7760000   15.5450000  
C 19.3100000   15.1180000   14.7840000  
C 17.9600000   15.1990000   15.2170000  
C 17.5800000   15.9370000   16.3460000  
C 21.2110000   16.9070000   17.1110000  
C 22.1990000   16.5390000   16.2310000  
N 21.5320000   15.9930000   15.1630000  
O 23.9660000   17.4000000   17.5230000  
C 23.6090000   16.8340000   16.3210000  
O 24.4250000   16.7080000   15.4480000  
O 17.0690000   14.5750000   14.3780000  
O 16.2450000   15.9810000   16.6580000  
H 21.4250000   17.4290000   18.0050000  
H 23.1300000   17.7330000   17.8680000  
H 21.9520000   15.5940000   14.3440000  
H 16.1460000   14.7690000   14.6950000  
H 16.1910000   16.6000000   17.4590000  
H 19.5950000   14.6970000   13.8400000  
