76
011 
C 17.6490000   12.5790000   26.3650000  
C 19.0520000   12.2570000   26.6060000  
C 19.9910000   13.0700000   26.0540000  
C 19.7080000   14.2340000   25.3050000  
C 18.4450000   14.6140000   24.9190000  
C 17.3240000   13.7970000   25.4460000  
C 21.4590000   13.0430000   26.1920000  
C 22.0450000   14.2060000   25.6370000  
N 20.9280000   14.8140000   24.9670000  
O 24.2260000   13.7200000   26.2400000  
C 23.4700000   14.6200000   25.6380000  
O 24.0250000   15.6380000   25.1410000  
O 16.1180000   14.0400000   25.2120000  
O 16.7180000   12.0410000   26.9270000  
H 19.2460000   11.4840000   27.3700000  
H 22.0220000   12.2670000   26.7180000  
H 23.6800000   13.0420000   26.6390000  
H 21.0540000   15.5980000   24.2880000  
C 18.2550000   15.7570000   24.0440000  
C 18.6130000   15.6490000   22.7040000  
C 18.4390000   16.6670000   21.8790000  
C 17.8690000   17.9070000   22.2360000  
C 17.5030000   18.0740000   23.6540000  
C 17.7830000   16.9710000   24.5570000  
C 19.1800000   14.5590000   21.9440000  
C 19.3570000   15.0410000   20.6100000  
N 18.8190000   16.3550000   20.6080000  
O 20.6150000   13.2840000   19.7820000  
C 19.9590000   14.3350000   19.3980000  
O 19.7790000   14.6590000   18.2050000  
O 17.2140000   19.2830000   24.2080000  
O 17.4870000   17.0290000   25.9290000  
H 19.3970000   13.5940000   22.3520000  
H 20.5460000   13.4380000   20.7610000  
H 18.8880000   17.0280000   19.8750000  
H 17.1160000   19.9090000   23.4820000  
H 16.7880000   17.6870000   26.0460000  
C 17.7270000   19.0220000   21.2690000  
C 16.4810000   19.6580000   21.0830000  
C 16.2720000   20.6640000   20.2470000  
C 17.2520000   21.1990000   19.3980000  
C 18.4780000   20.5690000   19.4320000  
C 18.7730000   19.4880000   20.4080000  
C 15.2040000   19.2810000   21.6840000  
C 14.3210000   20.2610000   21.2840000  
N 14.9740000   21.0470000   20.3530000  
O 12.3990000   19.5680000   22.6190000  
C 12.9070000   20.4440000   21.7240000  
O 12.2560000   21.3850000   21.3210000  
O 19.4510000   21.0220000   18.6490000  
O 19.9610000   18.8330000   20.3110000  
H 14.9260000   18.4450000   22.3700000  
H 12.9770000   18.8150000   22.8640000  
H 14.5000000   21.8890000   19.9390000  
H 19.2310000   21.8500000   18.2280000  
H 20.3920000   19.1070000   19.4430000  
C 16.8930000   22.1940000   18.3550000  
C 16.3140000   23.4200000   18.7510000  
C 15.7470000   24.3110000   17.7950000  
C 15.7740000   24.0340000   16.4190000  
C 16.2230000   22.7400000   16.0040000  
C 16.7940000   21.9160000   16.9680000  
C 15.9970000   24.0010000   20.0440000  
C 15.1980000   25.0830000   19.8740000  
N 15.1170000   25.3350000   18.4510000  
O 15.0010000   25.9010000   22.1010000  
C 14.7130000   26.0830000   20.8080000  
O 14.0430000   27.0720000   20.4050000  
O 16.3210000   22.4210000   14.6990000  
O 17.3080000   20.7610000   16.4710000  
H 16.3100000   23.5910000   20.9910000  
H 15.7490000   25.3870000   22.1640000  
H 14.7590000   26.1010000   17.9460000  
H 16.0780000   21.4980000   14.5990000  
H 18.0460000   20.4990000   17.0790000  
H 15.3700000   24.7320000   15.6900000  
