76
011 
C 11.3480000   14.4530000   21.5750000  
C 11.5030000   13.4750000   22.6670000  
C 12.7110000   13.5010000   23.3940000  
C 13.7100000   14.4300000   23.2960000  
C 13.7110000   15.3380000   22.2230000  
C 12.5550000   15.4380000   21.3040000  
C 13.1380000   12.5250000   24.3420000  
C 14.4260000   12.8640000   24.6740000  
N 14.7800000   14.0430000   24.0790000  
O 14.9110000   10.8760000   25.8950000  
C 15.3800000   12.0860000   25.5460000  
O 16.5190000   12.4560000   25.8920000  
O 12.4480000   16.2160000   20.3660000  
O 10.3490000   14.3620000   20.8310000  
H 10.7680000   12.6560000   22.8150000  
H 12.4740000   11.6990000   24.7120000  
H 14.0020000   10.8590000   25.5400000  
H 15.7200000   14.4650000   24.1040000  
C 14.8880000   16.1530000   22.2320000  
C 15.8110000   16.0330000   21.1560000  
C 16.8720000   16.9110000   21.1020000  
C 17.0620000   18.0350000   21.9660000  
C 16.0630000   18.1690000   22.9440000  
C 14.9660000   17.2970000   23.0420000  
C 15.8360000   15.2010000   19.9840000  
C 16.9090000   15.6060000   19.2520000  
N 17.5970000   16.6170000   19.9530000  
O 16.5300000   13.9680000   17.5020000  
C 17.2920000   15.0430000   17.9310000  
O 18.2020000   15.5150000   17.3270000  
O 16.1000000   19.1670000   23.9040000  
O 14.0320000   17.5800000   23.9840000  
H 15.2570000   14.3670000   19.8150000  
H 15.7930000   13.6390000   18.0940000  
H 18.5580000   16.9020000   19.8170000  
H 17.0540000   19.4240000   23.9130000  
H 14.1910000   18.4700000   24.3380000  
C 18.0640000   19.1130000   21.6560000  
C 17.7270000   20.4110000   21.2990000  
C 18.7720000   21.2510000   20.9930000  
C 20.1750000   21.0140000   20.9850000  
C 20.4910000   19.6990000   21.2930000  
C 19.4590000   18.7370000   21.6030000  
C 16.4430000   21.2270000   21.2470000  
C 16.8030000   22.4020000   20.6150000  
N 18.2400000   22.4880000   20.6130000  
O 14.5150000   23.3200000   20.5690000  
C 15.8310000   23.4420000   20.2360000  
O 16.1590000   24.3210000   19.4550000  
O 21.8440000   19.2900000   21.2770000  
O 19.8030000   17.4210000   21.9030000  
H 15.4030000   20.9220000   21.4330000  
H 14.4660000   22.5070000   21.0270000  
H 18.7490000   23.2790000   20.1860000  
H 22.2540000   20.1130000   20.9670000  
H 20.7480000   17.4140000   22.1530000  
C 21.1880000   22.0470000   20.7450000  
C 22.2240000   22.2610000   21.6880000  
C 23.2390000   23.1730000   21.4260000  
C 23.3080000   23.8580000   20.2310000  
C 22.3460000   23.6430000   19.2320000  
C 21.2260000   22.7890000   19.5580000  
C 22.3750000   21.8430000   23.0680000  
C 23.4860000   22.4630000   23.5650000  
N 23.9870000   23.2930000   22.5830000  
O 23.4290000   21.5310000   25.7310000  
C 24.1310000   22.3790000   24.9190000  
O 25.0720000   22.9590000   25.3610000  
O 22.4780000   24.3390000   18.0340000  
O 20.4360000   22.5480000   18.5100000  
H 21.6540000   21.2780000   23.7060000  
H 22.7030000   21.1320000   25.1740000  
H 24.6010000   24.0990000   22.8300000  
H 21.7050000   23.9810000   17.5440000  
H 20.0300000   21.6540000   18.5860000  
H 24.1330000   24.5110000   19.9570000  
