76
011 
C 19.8480000   11.4900000   23.6240000  
C 18.6500000   10.8280000   24.1090000  
C 17.4610000   11.5160000   24.1780000  
C 17.2860000   12.7810000   23.7060000  
C 18.2590000   13.5490000   23.1270000  
C 19.6720000   13.0070000   23.0810000  
C 16.1300000   11.0890000   24.5270000  
C 15.2070000   12.1080000   24.2960000  
N 15.9690000   13.1560000   23.7550000  
O 13.2200000   11.0240000   25.0360000  
C 13.7470000   12.0640000   24.3880000  
O 13.0750000   12.9140000   23.8900000  
O 20.7400000   13.5470000   22.7110000  
O 20.9440000   10.9110000   23.6880000  
H 18.8100000    9.7790000   24.4850000  
H 15.9220000   10.1340000   24.8720000  
H 13.9960000   10.5340000   25.3030000  
H 15.6350000   14.0470000   23.4450000  
C 17.9400000   14.9400000   22.7970000  
C 18.7330000   15.9940000   23.3260000  
C 18.5000000   17.2850000   22.9720000  
C 17.4130000   17.6780000   22.1350000  
C 16.7200000   16.6340000   21.5140000  
C 17.0590000   15.3020000   21.7430000  
C 19.7070000   15.9820000   24.4100000  
C 20.2650000   17.2360000   24.3520000  
N 19.3900000   18.0970000   23.6310000  
O 22.3180000   16.7630000   25.3320000  
C 21.4220000   17.6620000   25.0200000  
O 21.7980000   18.8410000   25.1340000  
O 15.7070000   16.9330000   20.6490000  
O 16.5190000   14.3560000   20.8710000  
H 20.1950000   15.1720000   24.8950000  
H 22.0240000   16.0560000   24.6720000  
H 19.5780000   19.0170000   23.4890000  
H 15.2040000   17.7440000   20.8510000  
H 16.2770000   14.7040000   19.9340000  
C 17.2170000   19.1510000   21.7070000  
C 18.2450000   19.9140000   21.0790000  
C 17.9960000   21.2160000   20.7010000  
C 16.8920000   21.9820000   21.0500000  
C 15.9110000   21.2980000   21.7720000  
C 16.0440000   19.8960000   22.0140000  
C 19.5630000   19.6080000   20.6300000  
C 20.1030000   20.7970000   20.0770000  
N 19.0420000   21.7300000   20.0240000  
O 22.3190000   20.0060000   19.6370000  
C 21.4480000   21.0000000   19.5050000  
O 21.8010000   21.9550000   18.9150000  
O 14.7530000   21.8920000   22.1750000  
O 15.2160000   19.4450000   23.0130000  
H 20.1180000   18.6520000   20.8330000  
H 21.9170000   19.3380000   20.1270000  
H 19.0760000   22.6290000   19.6230000  
H 14.5460000   22.7500000   21.6980000  
H 14.5460000   20.1150000   23.2310000  
C 16.7660000   23.4580000   20.7040000  
C 16.6950000   23.8630000   19.4300000  
C 16.4880000   25.1940000   19.0980000  
C 16.3440000   26.1560000   20.0260000  
C 16.5340000   25.8020000   21.4040000  
C 16.6710000   24.4280000   21.7060000  
C 16.7440000   23.1140000   18.1440000  
C 16.3590000   23.9520000   17.1480000  
N 16.2640000   25.2460000   17.7220000  
O 16.0430000   22.2820000   15.5400000  
C 16.0610000   23.6280000   15.7460000  
O 15.9970000   24.4290000   14.7790000  
O 16.4130000   26.7090000   22.3930000  
O 16.8080000   24.0790000   23.0260000  
H 16.7050000   22.0250000   18.0420000  
H 16.0020000   21.8800000   16.4360000  
H 16.0110000   26.0810000   17.1430000  
H 16.9620000   26.3900000   23.1190000  
H 16.7920000   23.0970000   22.9760000  
H 16.0900000   27.2180000   19.8010000  
