76
011 
C 11.2380000   16.9740000   25.2670000  
C 10.1500000   17.7310000   24.6590000  
C 10.4400000   18.5000000   23.5220000  
C 11.6950000   18.6840000   22.9910000  
C 12.8110000   18.0650000   23.4800000  
C 12.6530000   17.1140000   24.6150000  
C  9.5550000   19.3150000   22.7380000  
C 10.2470000   20.0280000   21.8340000  
N 11.5790000   19.5250000   21.9060000  
O  8.3200000   21.2290000   21.0120000  
C  9.7380000   21.1770000   21.0400000  
O 10.4190000   21.9120000   20.2860000  
O 13.5720000   16.4470000   25.0660000  
O 11.0790000   16.3240000   26.2960000  
H  9.2070000   17.7060000   25.2010000  
H  8.5380000   19.4520000   23.0730000  
H  7.9560000   20.5060000   21.5460000  
H 12.3010000   19.7270000   21.2630000  
C 14.0960000   18.3720000   22.7740000  
C 15.1560000   18.8020000   23.5760000  
C 16.3860000   19.0700000   23.0660000  
C 16.8390000   18.7180000   21.8120000  
C 15.7630000   18.3430000   20.9100000  
C 14.4260000   18.1930000   21.3840000  
C 15.2810000   19.0120000   25.0180000  
C 16.6260000   19.2270000   25.2770000  
N 17.3390000   19.3210000   24.0450000  
O 16.3980000   19.4680000   27.6000000  
C 17.2680000   19.3600000   26.5830000  
O 18.5020000   19.3800000   26.7670000  
O 16.0800000   18.0770000   19.6020000  
O 13.5050000   17.7950000   20.4540000  
H 14.5760000   19.0860000   25.8910000  
H 15.5840000   19.0790000   27.2970000  
H 18.2830000   19.6080000   23.9250000  
H 17.0100000   17.9400000   19.6930000  
H 13.9660000   17.9140000   19.5720000  
C 18.2860000   18.8050000   21.3700000  
C 19.2860000   17.9400000   21.8160000  
C 20.6050000   18.1200000   21.5300000  
C 21.0770000   19.0790000   20.5770000  
C 20.0930000   19.9960000   20.1150000  
C 18.6970000   19.8690000   20.5370000  
C 19.2330000   16.7620000   22.5940000  
C 20.5410000   16.2650000   22.6510000  
N 21.3840000   17.0760000   21.9560000  
O 19.8900000   14.4310000   23.8720000  
C 20.9310000   15.0930000   23.3310000  
O 22.0160000   14.6060000   23.1850000  
O 20.3390000   20.8610000   19.0610000  
O 17.7780000   20.7100000   20.0610000  
H 18.3770000   16.2470000   23.0070000  
H 19.0690000   14.9050000   23.6930000  
H 22.3420000   16.9960000   21.7170000  
H 21.2460000   20.6870000   18.7380000  
H 18.1590000   21.0150000   19.1730000  
C 22.5230000   19.2980000   20.1290000  
C 23.0000000   18.8450000   18.9760000  
C 24.2810000   18.9520000   18.5640000  
C 25.2210000   19.5850000   19.3070000  
C 24.7920000   20.0670000   20.5950000  
C 23.5130000   19.8410000   21.0490000  
C 22.3420000   18.0440000   17.9040000  
C 23.3790000   17.7010000   16.9820000  
N 24.5470000   18.3450000   17.3570000  
O 21.8900000   16.4670000   15.6790000  
C 23.1790000   16.8800000   15.7940000  
O 24.0950000   16.5300000   15.0530000  
O 25.7130000   20.6430000   21.4090000  
O 23.2040000   20.1890000   22.3250000  
H 21.3060000   17.7990000   17.7770000  
H 21.6420000   16.8030000   16.5870000  
H 25.3880000   18.3870000   16.8590000  
H 25.1970000   20.9520000   22.2110000  
H 22.3080000   19.9030000   22.4990000  
H 26.2980000   19.6590000   19.0470000  
