76
011 
C 11.9130000   13.2410000   21.5270000  
C 12.0900000   12.6110000   22.8310000  
C 13.1500000   13.0060000   23.5260000  
C 13.9170000   14.1790000   23.2340000  
C 13.9220000   14.8040000   22.0310000  
C 12.9900000   14.2530000   21.0060000  
C 13.7350000   12.5660000   24.7740000  
C 14.8300000   13.3750000   25.1470000  
N 14.9000000   14.3480000   24.2000000  
O 15.3620000   12.2060000   27.1810000  
C 15.6620000   13.2630000   26.3730000  
O 16.6640000   13.9680000   26.5960000  
O 12.9570000   14.5870000   19.8240000  
O 10.9700000   12.9660000   20.8200000  
H 11.3420000   11.9700000   23.2780000  
H 13.3840000   11.6710000   25.3030000  
H 14.4860000   11.9850000   26.8710000  
H 15.6290000   14.9170000   23.9160000  
C 14.9160000   15.8560000   21.8060000  
C 15.9360000   15.7700000   20.8850000  
C 16.8490000   16.7410000   20.7250000  
C 16.8880000   17.9870000   21.4370000  
C 15.7090000   18.2060000   22.1830000  
C 14.7590000   17.1350000   22.3640000  
C 16.4440000   14.6370000   20.1550000  
C 17.5600000   15.0870000   19.4300000  
N 17.8700000   16.3690000   19.9080000  
O 17.8700000   13.0700000   18.1960000  
C 18.2910000   14.3450000   18.4440000  
O 19.2540000   14.8560000   17.9030000  
O 15.4400000   19.3350000   22.9050000  
O 13.7610000   17.3440000   23.2310000  
H 16.0010000   13.6850000   19.9500000  
H 17.1940000   13.0090000   18.9250000  
H 18.6190000   16.9130000   19.4710000  
H 16.2710000   19.8730000   22.9870000  
H 13.5270000   18.3000000   23.1790000  
C 18.0120000   19.0210000   21.2160000  
C 17.8090000   20.2950000   20.7380000  
C 18.7530000   21.2210000   20.6160000  
C 20.1280000   20.9700000   20.8520000  
C 20.4570000   19.6330000   21.1270000  
C 19.4230000   18.6950000   21.3110000  
C 16.5750000   20.9080000   20.2790000  
C 16.8940000   22.2710000   20.2350000  
N 18.2590000   22.4910000   20.3210000  
O 14.6010000   22.9640000   19.7590000  
C 15.8370000   23.3860000   20.0320000  
O 16.1020000   24.5530000   20.1790000  
O 21.7440000   19.2810000   21.2680000  
O 19.7880000   17.3870000   21.5470000  
H 15.5330000   20.5400000   20.3600000  
H 14.7440000   22.0530000   19.6410000  
H 18.7610000   23.3570000   20.3810000  
H 22.2150000   20.0890000   21.0940000  
H 20.6680000   17.4510000   21.9570000  
C 21.1360000   22.1240000   20.7580000  
C 21.7850000   22.7320000   21.8760000  
C 22.6760000   23.7820000   21.7900000  
C 23.2060000   24.1460000   20.5570000  
C 22.7970000   23.4790000   19.4010000  
C 21.7320000   22.4660000   19.5280000  
C 21.4970000   22.5800000   23.2630000  
C 22.1190000   23.6010000   23.9510000  
N 22.9860000   24.3070000   23.0380000  
O 21.0760000   23.1330000   26.0890000  
C 21.8990000   23.9770000   25.3800000  
O 22.4270000   24.9090000   25.9420000  
O 23.2970000   23.8190000   18.2020000  
O 21.3390000   21.9530000   18.3740000  
H 20.7230000   21.9100000   23.6920000  
H 20.9130000   22.4210000   25.3980000  
H 23.6260000   25.0500000   23.2660000  
H 23.0170000   23.1190000   17.5140000  
H 20.6220000   21.3380000   18.6020000  
H 24.0290000   24.8360000   20.4550000  
