76
011 
C 17.9160000   18.1310000   29.4160000  
C 19.4050000   18.3120000   29.6050000  
C 20.1000000   18.6910000   28.5120000  
C 19.5380000   18.9570000   27.2740000  
C 18.2510000   18.6800000   26.9640000  
C 17.3000000   18.2990000   28.0080000  
C 21.5080000   18.5780000   28.2350000  
C 21.7560000   18.9940000   26.8910000  
N 20.4750000   19.2460000   26.3610000  
O 24.1030000   18.6060000   26.9190000  
C 23.0710000   18.9810000   26.1740000  
O 23.1770000   19.2480000   24.9920000  
O 16.1100000   17.9910000   27.7800000  
O 17.2220000   17.7980000   30.3350000  
H 19.8510000   18.0580000   30.5580000  
H 22.2360000   18.3200000   29.0080000  
H 23.6650000   18.3420000   27.8000000  
H 20.2360000   19.3890000   25.3490000  
C 17.8640000   18.8820000   25.6030000  
C 17.8640000   17.7480000   24.7790000  
C 17.6080000   17.8980000   23.4390000  
C 17.2240000   19.1260000   22.7860000  
C 17.2050000   20.2360000   23.6870000  
C 17.5290000   20.1530000   25.0610000  
C 18.3280000   16.3580000   24.9540000  
C 18.4460000   15.8600000   23.6820000  
N 17.9790000   16.7970000   22.7410000  
O 19.1000000   13.6360000   24.2980000  
C 18.7940000   14.4730000   23.2980000  
O 18.6940000   14.0290000   22.1400000  
O 16.7610000   21.4470000   23.2520000  
O 17.6690000   21.2860000   25.8130000  
H 18.6730000   15.8920000   25.8750000  
H 19.0160000   14.0450000   25.1840000  
H 17.7800000   16.5780000   21.7180000  
H 16.3440000   21.4130000   22.3330000  
H 17.2890000   21.9380000   25.2230000  
C 17.0520000   19.2220000   21.3270000  
C 16.2250000   18.3120000   20.6900000  
C 16.2840000   18.1200000   19.3750000  
C 17.0870000   18.8100000   18.4560000  
C 18.0180000   19.7750000   18.9960000  
C 17.9620000   19.9630000   20.3980000  
C 15.2310000   17.3660000   21.1690000  
C 14.7570000   16.6980000   20.0920000  
N 15.4090000   17.1610000   18.9390000  
O 13.3990000   15.1710000   21.4220000  
C 13.7740000   15.5610000   20.1410000  
O 13.3190000   14.9710000   19.2030000  
O 18.9350000   20.4430000   18.1930000  
O 18.8870000   20.7400000   20.9210000  
H 14.8980000   17.3100000   22.2070000  
H 13.9550000   15.6990000   22.0960000  
H 15.2100000   16.9050000   18.0210000  
H 18.8120000   20.0180000   17.2900000  
H 19.4550000   21.0250000   20.1960000  
C 17.0410000   18.6700000   17.0290000  
C 16.5860000   19.6880000   16.1540000  
C 16.6410000   19.4950000   14.8250000  
C 17.0600000   18.2870000   14.2000000  
C 17.4820000   17.2170000   15.0110000  
C 17.4680000   17.4060000   16.4530000  
C 16.0790000   21.0280000   16.4210000  
C 15.8640000   21.6200000   15.1690000  
N 16.2360000   20.6590000   14.2040000  
O 15.2430000   23.7590000   16.1060000  
C 15.3370000   22.9690000   14.9520000  
O 15.1450000   23.5240000   13.8420000  
O 17.9230000   16.0490000   14.4710000  
O 18.0730000   16.4100000   17.1680000  
H 15.9600000   21.4570000   17.3970000  
H 15.5440000   23.1640000   16.7380000  
H 16.1390000   20.7550000   13.2430000  
H 17.8760000   15.3580000   15.2310000  
H 18.2360000   16.7980000   18.0500000  
H 17.0120000   18.1580000   13.1410000  
