76
011 
C 18.8310000   17.0390000   29.1130000  
C 20.2890000   17.0660000   29.2100000  
C 21.0010000   17.3190000   28.0860000  
C 20.4280000   17.6210000   26.8560000  
C 19.0730000   17.6350000   26.6440000  
C 18.1580000   17.3530000   27.7740000  
C 22.4250000   17.4430000   27.8910000  
C 22.6110000   17.8090000   26.5700000  
N 21.3940000   17.9280000   25.9880000  
O 24.8870000   18.2030000   26.5300000  
C 23.8100000   18.1590000   25.8190000  
O 23.9190000   18.4700000   24.6770000  
O 16.9340000   17.3310000   27.6480000  
O 18.1490000   16.9020000   30.0850000  
H 20.6690000   16.9070000   30.1730000  
H 23.1500000   17.2640000   28.6610000  
H 24.6040000   18.3060000   27.4840000  
H 21.2530000   18.2700000   25.0980000  
C 18.6050000   17.9500000   25.3210000  
C 18.1290000   16.9480000   24.4980000  
C 17.7350000   17.2480000   23.2570000  
C 17.8320000   18.5460000   22.6590000  
C 18.3640000   19.5850000   23.4940000  
C 18.7340000   19.2990000   24.8300000  
C 17.8310000   15.5470000   24.7560000  
C 17.1530000   15.1070000   23.6380000  
N 17.1810000   16.0770000   22.6770000  
O 16.8490000   12.9460000   24.3540000  
C 16.6690000   13.7850000   23.3390000  
O 16.2130000   13.4950000   22.2320000  
O 18.4120000   20.9180000   23.0090000  
O 19.4470000   20.2750000   25.5990000  
H 17.9350000   14.9250000   25.6430000  
H 17.3460000   13.5410000   24.9860000  
H 16.8340000   15.9150000   21.7380000  
H 17.7880000   20.9780000   22.2710000  
H 19.3710000   21.0980000   25.0820000  
C 17.4240000   18.7520000   21.2110000  
C 16.0810000   18.9590000   20.8830000  
C 15.6670000   19.1050000   19.6250000  
C 16.5560000   19.1000000   18.5000000  
C 17.9210000   18.9150000   18.8050000  
C 18.3960000   18.7370000   20.1330000  
C 14.9050000   19.1310000   21.7120000  
C 13.8380000   19.3080000   20.8660000  
N 14.3060000   19.3710000   19.5540000  
O 12.3520000   19.0100000   22.5510000  
C 12.4400000   19.3490000   21.2630000  
O 11.4930000   19.5660000   20.5770000  
O 18.8200000   18.9310000   17.7770000  
O 19.7060000   18.5710000   20.4300000  
H 14.8850000   18.9270000   22.7660000  
H 13.2400000   18.8340000   22.7360000  
H 13.7890000   19.2630000   18.7280000  
H 18.3570000   18.9990000   16.9480000  
H 20.2160000   18.1610000   19.6640000  
C 16.0420000   19.1820000   17.0450000  
C 16.4370000   20.2170000   16.1990000  
C 16.0290000   20.3260000   14.8890000  
C 15.2050000   19.3590000   14.3550000  
C 14.8650000   18.2170000   15.1460000  
C 15.2960000   18.1390000   16.4680000  
C 17.1760000   21.4040000   16.4240000  
C 17.2050000   22.1590000   15.2740000  
N 16.5090000   21.4600000   14.2990000  
O 18.6940000   23.8400000   16.2600000  
C 18.0260000   23.3920000   15.1720000  
O 18.1580000   24.0890000   14.1680000  
O 14.1370000   17.2210000   14.6600000  
O 15.1250000   16.9960000   17.2240000  
H 17.5870000   21.5600000   17.4080000  
H 18.5020000   23.1770000   17.0000000  
H 16.4980000   21.6250000   13.3420000  
H 14.3850000   16.4840000   15.1840000  
H 15.8460000   17.0130000   17.8420000  
H 14.8660000   19.5130000   13.2920000  
