76
011 
C 12.0310000   13.6370000   20.1480000  
C 10.9360000   14.1110000   21.1440000  
C 11.2440000   15.1790000   21.9710000  
C 12.4380000   15.9150000   21.8930000  
C 13.5130000   15.4930000   21.1530000  
C 13.4090000   14.3060000   20.2900000  
C 10.3550000   15.9610000   22.8060000  
C 11.0860000   17.0610000   23.3440000  
N 12.3700000   16.9660000   22.8290000  
O  9.2260000   18.1260000   24.2580000  
C 10.5700000   18.1930000   24.0710000  
O 11.1800000   19.1410000   24.4530000  
O 14.4370000   13.8910000   19.7040000  
O 11.8230000   12.7910000   19.2560000  
H  9.9870000   13.6620000   20.9960000  
H  9.3520000   15.8130000   22.9840000  
H  9.0330000   17.2100000   24.0400000  
H 13.1390000   17.5010000   23.0800000  
C 14.7460000   16.2580000   21.3650000  
C 15.8210000   15.7050000   22.0540000  
C 16.9920000   16.4100000   22.1640000  
C 17.2640000   17.6330000   21.5550000  
C 16.1770000   18.2330000   20.8580000  
C 14.9340000   17.5440000   20.7370000  
C 16.0740000   14.4400000   22.7950000  
C 17.3980000   14.4640000   23.2290000  
N 17.9710000   15.7030000   22.8190000  
O 17.5050000   12.3590000   24.3860000  
C 18.1920000   13.5030000   24.0660000  
O 19.3290000   13.6150000   24.4730000  
O 16.2380000   19.5080000   20.3220000  
O 13.9120000   18.1660000   19.9790000  
H 15.2970000   13.6810000   23.0740000  
H 16.7200000   12.3260000   23.7750000  
H 18.8650000   16.0070000   23.1010000  
H 17.1860000   19.6990000   20.2520000  
H 14.1640000   19.0650000   19.7010000  
C 18.5440000   18.4220000   21.7230000  
C 19.3480000   18.7100000   20.6200000  
C 20.4240000   19.5840000   20.7400000  
C 20.8790000   20.0950000   21.9480000  
C 20.1420000   19.7340000   23.1050000  
C 18.9750000   18.9360000   22.9710000  
C 19.1800000   18.4590000   19.2360000  
C 20.1670000   19.1270000   18.5610000  
N 20.9430000   19.8900000   19.4880000  
O 19.5950000   18.4030000   16.3390000  
C 20.5740000   19.0140000   17.1050000  
O 21.6150000   19.5290000   16.6950000  
O 20.5680000   20.0120000   24.4040000  
O 18.3710000   18.4650000   24.0760000  
H 18.4530000   17.8010000   18.8430000  
H 18.8210000   18.1820000   16.9200000  
H 21.5890000   20.5720000   19.1980000  
H 21.3970000   20.5410000   24.2630000  
H 18.5150000   19.0250000   24.8380000  
C 22.0320000   21.0540000   22.0420000  
C 21.8120000   22.5030000   22.1220000  
C 22.8760000   23.3420000   21.9860000  
C 24.1850000   22.8840000   22.0270000  
C 24.4370000   21.4950000   22.0910000  
C 23.3770000   20.5680000   21.9560000  
C 20.6240000   23.3800000   22.3020000  
C 21.1190000   24.6490000   22.4170000  
N 22.5070000   24.6780000   22.0610000  
O 19.0960000   25.5300000   23.0320000  
C 20.3500000   25.8490000   22.6320000  
O 20.8410000   26.9910000   22.4950000  
O 25.7120000   21.0770000   21.9990000  
O 23.6640000   19.2210000   21.9110000  
H 19.6290000   23.0190000   22.4470000  
H 19.0560000   24.5970000   23.0340000  
H 23.0960000   25.4200000   21.8970000  
H 25.7490000   20.0980000   22.0560000  
H 22.8900000   18.6910000   22.0820000  
H 25.1150000   23.5140000   21.9060000  
