76
011 
C 16.1000000   21.9960000   28.5160000  
C 14.6950000   21.6050000   28.6890000  
C 14.1230000   20.6860000   27.8420000  
C 14.7810000   20.1190000   26.7730000  
C 16.1020000   20.3510000   26.4140000  
C 16.8300000   21.3450000   27.2190000  
C 12.7920000   20.1790000   27.7310000  
C 12.6970000   19.2360000   26.7120000  
N 13.9280000   19.2390000   26.1020000  
O 10.5070000   18.5580000   27.1570000  
C 11.5510000   18.5870000   26.2430000  
O 11.4110000   18.1140000   25.1180000  
O 18.0120000   21.6270000   26.9340000  
O 16.7100000   22.7380000   29.2650000  
H 14.2380000   22.1110000   29.5590000  
H 11.9760000   20.4850000   28.3760000  
H 10.7650000   18.9390000   28.0410000  
H 14.2430000   18.5740000   25.4650000  
C 16.6500000   19.7420000   25.1280000  
C 16.3660000   20.3750000   23.8890000  
C 16.8790000   19.8660000   22.7100000  
C 17.6460000   18.7210000   22.5250000  
C 17.8270000   18.0210000   23.7260000  
C 17.4720000   18.5640000   25.0180000  
C 15.5740000   21.5450000   23.5150000  
C 15.7220000   21.5890000   22.1170000  
N 16.5130000   20.5760000   21.6130000  
O 14.1590000   23.4250000   21.7730000  
C 15.0030000   22.5070000   21.2480000  
O 15.1440000   22.4560000   20.0240000  
O 18.5050000   16.8570000   23.7230000  
O 17.4800000   17.8710000   26.1840000  
H 15.0690000   22.2200000   24.2550000  
H 14.0380000   23.1740000   22.7340000  
H 16.7520000   20.3340000   20.6110000  
H 18.8210000   16.5230000   22.7920000  
H 17.7590000   16.9670000   25.9850000  
C 18.0950000   18.3720000   21.1700000  
C 19.3910000   18.6830000   20.7630000  
C 19.8760000   18.2220000   19.6160000  
C 19.1680000   17.5080000   18.6210000  
C 17.8610000   17.3160000   18.8860000  
C 17.3120000   17.6800000   20.1520000  
C 20.5180000   19.3040000   21.4580000  
C 21.6170000   19.3020000   20.5660000  
N 21.2380000   18.5680000   19.4700000  
O 23.1460000   20.5120000   21.9260000  
C 22.9970000   19.8950000   20.7330000  
O 23.9030000   19.7630000   19.8870000  
O 17.0120000   16.7630000   17.9140000  
O 15.9520000   17.4020000   20.3860000  
H 20.6270000   19.7430000   22.4610000  
H 22.3410000   20.4860000   22.4250000  
H 21.8440000   18.3230000   18.6650000  
H 17.5010000   16.7760000   17.0950000  
H 15.5960000   17.1810000   19.4960000  
C 19.8090000   17.0070000   17.3660000  
C 19.7550000   15.6270000   17.2150000  
C 20.2960000   15.0720000   16.0270000  
C 20.8090000   15.8510000   14.9540000  
C 20.7080000   17.2260000   15.1210000  
C 20.1670000   17.8150000   16.2420000  
C 19.5130000   14.5340000   18.0850000  
C 19.8270000   13.3780000   17.4240000  
N 20.3670000   13.7090000   16.1960000  
O 18.9530000   11.7260000   18.8970000  
C 19.6470000   11.9490000   17.7760000  
O 19.9510000   10.9780000   17.0600000  
O 21.1020000   18.0930000   14.0680000  
O 20.0870000   19.1540000   16.2780000  
H 19.1370000   14.6410000   19.1170000  
H 18.7650000   12.6640000   19.1220000  
H 20.5840000   13.0850000   15.4680000  
H 21.1080000   18.9810000   14.3960000  
H 19.9320000   19.4310000   17.2250000  
H 21.2490000   15.3680000   14.0910000  
