76
011 
C 10.8970000   15.7910000   24.5040000  
C 10.0690000   16.8620000   23.8710000  
C 10.6880000   17.7950000   23.0660000  
C 11.9930000   17.8160000   22.6800000  
C 12.8780000   16.8900000   23.1480000  
C 12.4740000   15.9310000   24.2180000  
C 10.1290000   19.0050000   22.4750000  
C 11.0830000   19.6830000   21.6880000  
N 12.2690000   18.8870000   21.8610000  
O  9.7330000   21.3690000   20.9480000  
C 10.9570000   20.9090000   20.9770000  
O 11.9290000   21.4490000   20.4610000  
O 13.2620000   15.2160000   24.8630000  
O 10.4270000   14.8230000   25.1040000  
H  8.9840000   16.8240000   24.0270000  
H  9.1410000   19.3950000   22.6470000  
H  9.1790000   20.8310000   21.5140000  
H 13.1480000   19.0750000   21.4570000  
C 14.3100000   17.1500000   22.7770000  
C 15.0170000   18.2080000   23.3660000  
C 16.2020000   18.5280000   22.9050000  
C 16.8770000   17.8920000   21.8160000  
C 16.1160000   16.8590000   21.1870000  
C 14.8840000   16.4560000   21.7470000  
C 14.7650000   19.0710000   24.5690000  
C 15.8530000   19.9540000   24.6750000  
N 16.7900000   19.5600000   23.6830000  
O 15.1360000   21.4670000   26.4590000  
C 16.0410000   21.1750000   25.4750000  
O 16.9380000   22.0230000   25.3260000  
O 16.5100000   16.3440000   19.9230000  
O 14.1760000   15.4990000   21.0590000  
H 13.8280000   19.0270000   25.1140000  
H 14.4000000   20.8150000   26.3800000  
H 17.6410000   19.9970000   23.4590000  
H 17.0450000   17.0390000   19.5780000  
H 14.8230000   14.9910000   20.5000000  
C 18.2490000   18.3190000   21.3620000  
C 19.3580000   18.2680000   22.2490000  
C 20.6030000   18.7510000   21.9720000  
C 20.9590000   19.2370000   20.6900000  
C 19.8530000   19.3420000   19.7850000  
C 18.5050000   18.8840000   20.0770000  
C 19.3730000   17.7840000   23.6030000  
C 20.7210000   17.8530000   24.0040000  
N 21.5340000   18.5090000   22.9860000  
O 20.3390000   16.7180000   26.0700000  
C 21.2270000   17.3480000   25.2740000  
O 22.4140000   17.3570000   25.5470000  
O 19.9570000   20.1750000   18.7020000  
O 17.5640000   18.9860000   19.1030000  
H 18.4940000   17.4710000   24.1270000  
H 19.4680000   16.9040000   25.7390000  
H 22.5580000   18.6670000   22.9510000  
H 20.8220000   20.5040000   18.7380000  
H 18.0000000   19.4890000   18.4060000  
C 22.3060000   19.5640000   20.1430000  
C 22.8260000   19.1110000   18.9620000  
C 24.1190000   19.3050000   18.6020000  
C 25.0430000   20.0740000   19.2180000  
C 24.5710000   20.6220000   20.4400000  
C 23.2270000   20.3960000   20.9100000  
C 22.2770000   18.1170000   17.9920000  
C 23.2970000   17.8700000   17.0990000  
N 24.3880000   18.6940000   17.4120000  
O 22.1020000   16.2820000   15.7240000  
C 23.2710000   16.9060000   16.0250000  
O 24.3310000   16.5420000   15.3950000  
O 25.3550000   21.5270000   21.0040000  
O 22.7860000   20.9860000   22.0690000  
H 21.3580000   17.6800000   17.9140000  
H 21.4290000   16.7460000   16.2980000  
H 25.2830000   18.7450000   16.9420000  
H 24.8110000   21.8970000   21.6930000  
H 21.8760000   20.7150000   22.3350000  
H 26.0380000   20.3370000   18.8070000  
