76
011 
C 20.7250000   16.2510000   28.5000000  
C 21.3000000   14.9430000   28.2080000  
C 21.2950000   14.4790000   26.9240000  
C 20.9340000   15.3000000   25.8320000  
C 20.3200000   16.5010000   25.9230000  
C 20.2380000   17.1130000   27.2360000  
C 21.4560000   13.1680000   26.3360000  
C 21.1590000   13.1850000   24.9240000  
N 20.8110000   14.5140000   24.7080000  
O 21.4270000   10.7890000   24.2740000  
C 21.1460000   12.0970000   23.8980000  
O 20.8790000   12.4280000   22.7320000  
O 19.7560000   18.2460000   27.4440000  
O 20.4800000   16.5920000   29.6310000  
H 21.6160000   14.2960000   29.0300000  
H 21.5600000   12.3060000   26.9980000  
H 21.7660000   10.7830000   25.2060000  
H 20.4660000   14.8350000   23.8090000  
C 19.6880000   17.0480000   24.6760000  
C 18.3450000   17.3220000   24.5660000  
C 17.7570000   17.9310000   23.4830000  
C 18.4990000   18.2240000   22.3280000  
C 19.9100000   18.1360000   22.4450000  
C 20.4640000   17.5540000   23.6050000  
C 17.2500000   17.2710000   25.5250000  
C 16.0950000   17.7290000   24.9190000  
N 16.3680000   18.1540000   23.5990000  
O 14.6220000   17.2620000   26.7130000  
C 14.7330000   17.7850000   25.5040000  
O 13.7680000   18.2550000   24.9320000  
O 20.7570000   18.6430000   21.4870000  
O 21.8230000   17.3980000   23.7200000  
H 17.4210000   16.9900000   26.4900000  
H 15.4870000   17.0510000   26.9710000  
H 15.7200000   18.5770000   22.9760000  
H 20.3220000   18.9300000   20.6990000  
H 22.1730000   18.1090000   23.1390000  
C 17.8190000   18.7570000   21.0260000  
C 16.9670000   19.9070000   21.0080000  
C 16.3570000   20.1810000   19.8190000  
C 16.4510000   19.4770000   18.5860000  
C 17.2330000   18.3490000   18.6690000  
C 17.9170000   18.0200000   19.8230000  
C 16.5760000   20.8130000   22.0250000  
C 15.5460000   21.4930000   21.4200000  
N 15.5960000   21.2700000   20.0100000  
O 14.8240000   22.5370000   23.4170000  
C 14.6760000   22.5070000   22.1020000  
O 13.7930000   23.1210000   21.5250000  
O 17.5750000   17.6670000   17.6090000  
O 18.5400000   16.7820000   19.8360000  
H 16.8380000   20.7330000   23.0890000  
H 15.4740000   21.7890000   23.7210000  
H 15.0900000   21.7780000   19.2790000  
H 16.9010000   17.7640000   16.8560000  
H 18.5230000   16.4850000   18.9370000  
C 15.7000000   19.8720000   17.3350000  
C 15.9280000   21.1510000   16.6530000  
C 15.1950000   21.6170000   15.6370000  
C 14.0950000   20.8950000   15.1610000  
C 13.7730000   19.6770000   15.8100000  
C 14.5780000   19.1910000   16.8810000  
C 16.8550000   22.2300000   17.0510000  
C 16.7640000   23.2150000   16.0900000  
N 15.7190000   22.8270000   15.1330000  
O 18.6700000   24.3020000   16.8410000  
C 17.5960000   24.3470000   16.0140000  
O 17.4210000   25.3490000   15.3530000  
O 12.7850000   18.9730000   15.2830000  
O 14.1460000   18.1160000   17.6050000  
H 17.6690000   22.1670000   17.7590000  
H 18.6260000   23.3860000   17.1770000  
H 15.3400000   23.4160000   14.3200000  
H 12.6840000   18.0720000   15.7490000  
H 15.0220000   17.8370000   18.0280000  
H 13.5760000   21.0790000   14.2540000  
