76
011 
C 18.4650000   21.7360000   28.5470000  
C 18.0660000   20.6700000   29.4540000  
C 17.8790000   19.4190000   28.9180000  
C 18.0430000   19.1250000   27.5500000  
C 18.2710000   20.0840000   26.6350000  
C 18.5150000   21.4310000   26.9730000  
C 17.2890000   18.2570000   29.5170000  
C 17.3390000   17.2000000   28.6020000  
N 17.7380000   17.7760000   27.3810000  
O 16.1980000   15.5580000   29.9410000  
C 16.8190000   15.8450000   28.7520000  
O 16.9070000   14.9820000   27.8840000  
O 18.6860000   22.2850000   26.1070000  
O 18.7270000   22.8560000   28.9260000  
H 17.9860000   20.8580000   30.4920000  
H 16.8660000   18.2650000   30.4970000  
H 16.2480000   16.4350000   30.4040000  
H 17.7790000   17.3300000   26.4250000  
C 18.2790000   19.6610000   25.2100000  
C 17.2090000   20.1230000   24.4710000  
C 16.9290000   19.6240000   23.2620000  
C 17.7340000   18.6320000   22.6350000  
C 18.8290000   18.1650000   23.3730000  
C 19.1110000   18.6440000   24.7130000  
C 16.1930000   21.1650000   24.7550000  
C 15.3270000   21.1360000   23.6280000  
N 15.8250000   20.2260000   22.7020000  
O 13.4360000   22.4920000   24.1380000  
C 14.0290000   21.7160000   23.1920000  
O 13.5020000   21.5030000   22.1570000  
O 19.6610000   17.1420000   23.0070000  
O 20.2020000   18.0560000   25.4490000  
H 16.0750000   21.7770000   25.6250000  
H 14.0410000   22.5020000   24.8250000  
H 15.2250000   19.8420000   21.9290000  
H 19.1690000   16.6840000   22.3310000  
H 20.7250000   17.5070000   24.8480000  
C 17.4720000   18.1440000   21.2010000  
C 17.2720000   19.0150000   20.1040000  
C 17.0610000   18.6810000   18.8350000  
C 17.1930000   17.3470000   18.3900000  
C 17.2600000   16.3470000   19.4100000  
C 17.3970000   16.7560000   20.7770000  
C 17.5420000   20.4700000   20.0760000  
C 17.5050000   20.8100000   18.7310000  
N 17.1420000   19.7390000   17.9110000  
O 18.3850000   23.1020000   19.0560000  
C 17.8220000   22.1720000   18.2270000  
O 17.5650000   22.4300000   17.0320000  
O 17.1910000   14.9850000   19.0970000  
O 17.3900000   15.7560000   21.6960000  
H 17.7390000   21.1090000   20.9460000  
H 18.3860000   22.5750000   19.9230000  
H 17.2960000   19.7450000   16.9430000  
H 16.7830000   14.8300000   18.2320000  
H 16.9640000   14.9850000   21.2620000  
C 17.2610000   17.0000000   16.9340000  
C 18.4170000   16.4400000   16.3520000  
C 18.5070000   16.1230000   15.0060000  
C 17.4230000   16.3030000   14.1380000  
C 16.2510000   16.7970000   14.6610000  
C 16.1830000   17.1860000   16.0270000  
C 19.7330000   16.2590000   16.8840000  
C 20.5030000   15.6550000   15.8870000  
N 19.7340000   15.5960000   14.7320000  
O 22.5320000   15.4230000   17.1740000  
C 21.9180000   15.1920000   15.9820000  
O 22.4720000   14.4760000   15.1920000  
O 15.1500000   16.9660000   13.9150000  
O 14.9360000   17.5240000   16.5530000  
H 20.0270000   16.6390000   17.8360000  
H 21.8440000   15.3370000   17.8660000  
H 19.9630000   15.0890000   13.9240000  
H 14.4980000   17.2000000   14.5800000  
H 14.8180000   17.3210000   17.4680000  
H 17.4920000   15.9750000   13.0670000  
