76
011 
C 18.1230000   12.9120000   27.1210000  
C 19.5180000   12.9890000   27.4330000  
C 20.3420000   13.7370000   26.6360000  
C 19.8440000   14.5470000   25.6460000  
C 18.5250000   14.7140000   25.3030000  
C 17.5510000   13.8870000   26.0300000  
C 21.6680000   14.2020000   26.8730000  
C 21.9970000   15.2390000   25.9470000  
N 20.8540000   15.3810000   25.1520000  
O 24.1410000   15.9130000   26.8480000  
C 23.2050000   16.0920000   25.8530000  
O 23.3650000   16.9350000   24.9890000  
O 16.3780000   13.8640000   25.6750000  
O 17.3230000   12.2620000   27.7650000  
H 19.7970000   12.4900000   28.3840000  
H 22.2940000   13.8190000   27.7120000  
H 23.9270000   15.1600000   27.3910000  
H 20.6800000   16.1150000   24.5240000  
C 18.2260000   15.7510000   24.3050000  
C 18.6270000   15.6750000   22.9650000  
C 18.4950000   16.7490000   22.1160000  
C 17.8430000   17.9370000   22.4110000  
C 17.2590000   17.9040000   23.7520000  
C 17.4940000   16.8630000   24.6950000  
C 19.2650000   14.6870000   22.1740000  
C 19.6560000   15.2470000   20.9430000  
N 19.1250000   16.5290000   20.9160000  
O 20.8010000   13.3540000   20.3010000  
C 20.3920000   14.5730000   19.8600000  
O 20.7880000   14.9610000   18.7690000  
O 16.6040000   19.0270000   24.1660000  
O 17.0680000   16.9770000   25.9810000  
H 19.4860000   13.6890000   22.5130000  
H 20.4640000   13.2690000   21.2360000  
H 19.1750000   17.2090000   20.1970000  
H 16.9330000   19.7090000   23.5380000  
H 16.6090000   17.8160000   26.1260000  
C 17.6290000   19.0130000   21.3840000  
C 16.3960000   19.0580000   20.7310000  
C 16.1450000   20.0040000   19.8040000  
C 17.0060000   21.0280000   19.3750000  
C 18.2640000   21.0230000   20.0070000  
C 18.4650000   20.0990000   21.0980000  
C 15.2380000   18.1740000   20.6490000  
C 14.3620000   18.6240000   19.6540000  
N 14.9510000   19.8470000   19.1380000  
O 12.4600000   17.2280000   20.0230000  
C 13.0150000   18.1520000   19.2130000  
O 12.4810000   18.5510000   18.2040000  
O 19.2300000   21.9440000   19.6560000  
O 19.6730000   20.1330000   21.7320000  
H 15.1880000   17.2400000   21.2550000  
H 12.9800000   17.1460000   20.8290000  
H 14.4490000   20.4050000   18.4240000  
H 18.7260000   22.6080000   19.1920000  
H 20.1120000   20.9570000   21.4990000  
C 16.6200000   22.0600000   18.3110000  
C 15.8970000   23.2390000   18.6890000  
C 15.8020000   24.2580000   17.7610000  
C 16.5410000   24.2460000   16.5520000  
C 17.2970000   23.1630000   16.2270000  
C 17.3080000   22.0620000   17.0560000  
C 15.1990000   23.5800000   19.8910000  
C 14.5970000   24.7960000   19.5920000  
N 14.9530000   25.1990000   18.2650000  
O 13.2170000   24.9310000   21.6270000  
C 13.6630000   25.5060000   20.4840000  
O 13.2400000   26.6110000   20.1400000  
O 17.8320000   23.3480000   14.9880000  
O 18.0590000   20.9330000   16.6650000  
H 15.0370000   22.9010000   20.7100000  
H 13.9440000   24.4040000   21.8160000  
H 14.5320000   26.0040000   17.7810000  
H 17.9470000   22.4740000   14.5920000  
H 18.3740000   20.3220000   17.3890000  
H 16.3180000   25.0220000   15.8390000  
