76
011 
C 21.6340000   14.1980000   26.4790000  
C 21.2680000   12.8560000   26.1050000  
C 20.3600000   12.7010000   25.0980000  
C 19.8290000   13.7130000   24.3600000  
C 20.0610000   15.0540000   24.5610000  
C 20.9740000   15.3790000   25.6440000  
C 19.6960000   11.5580000   24.6510000  
C 18.8240000   11.8960000   23.6390000  
N 18.8990000   13.2600000   23.5030000  
O 17.9550000    9.7390000   23.2870000  
C 17.8680000   11.0270000   22.9660000  
O 17.0300000   11.3670000   22.2150000  
O 21.2570000   16.5660000   25.8460000  
O 22.4010000   14.4820000   27.3400000  
H 21.6440000   12.0280000   26.6470000  
H 19.8940000   10.5800000   25.0500000  
H 18.8290000    9.7010000   23.6340000  
H 18.3200000   13.7920000   22.8500000  
C 19.4100000   16.0140000   23.7560000  
C 18.3720000   16.7710000   24.2250000  
C 17.8050000   17.8390000   23.4720000  
C 18.1130000   18.0380000   22.1090000  
C 19.2980000   17.3730000   21.6610000  
C 20.0050000   16.5100000   22.5600000  
C 17.5800000   16.7190000   25.4350000  
C 16.6560000   17.7440000   25.3950000  
N 16.6800000   18.3210000   24.1150000  
O 15.9380000   17.4090000   27.6120000  
C 15.7700000   18.1190000   26.4960000  
O 14.9370000   18.9930000   26.4580000  
O 19.7720000   17.6710000   20.3860000  
O 21.2020000   15.9580000   22.1890000  
H 17.8180000   16.0810000   26.2670000  
H 16.7530000   17.0230000   27.4300000  
H 16.1240000   19.1520000   23.8180000  
H 19.1210000   18.2560000   19.9070000  
H 21.2280000   15.7560000   21.1920000  
C 17.4340000   19.0150000   21.2940000  
C 17.6530000   20.3370000   21.5390000  
C 16.8650000   21.2870000   20.8830000  
C 16.0360000   21.0270000   19.7800000  
C 15.7480000   19.6930000   19.5840000  
C 16.4790000   18.6730000   20.3030000  
C 18.5460000   21.0300000   22.4300000  
C 18.1920000   22.3910000   22.3410000  
N 17.1810000   22.5500000   21.3300000  
O 19.5800000   23.1290000   24.2000000  
C 18.6840000   23.4990000   23.1870000  
O 18.3200000   24.6430000   23.1450000  
O 14.8290000   19.3860000   18.6020000  
O 16.1240000   17.3430000   20.0580000  
H 19.2850000   20.5980000   23.1190000  
H 19.7350000   22.2290000   24.2510000  
H 16.8380000   23.4260000   21.0410000  
H 14.3920000   20.1590000   18.2050000  
H 15.2990000   17.4350000   19.5070000  
C 15.3520000   21.9870000   18.8710000  
C 15.6690000   21.9770000   17.4490000  
C 15.2220000   22.9430000   16.5910000  
C 14.4590000   24.0310000   17.0500000  
C 14.1500000   24.0770000   18.4350000  
C 14.6460000   23.1150000   19.3550000  
C 16.5410000   21.1300000   16.7460000  
C 16.6260000   21.5760000   15.4190000  
N 15.7440000   22.6940000   15.3870000  
O 18.3210000   20.1550000   14.6000000  
C 17.4820000   21.1710000   14.3240000  
O 17.4820000   21.6900000   13.2060000  
O 13.5410000   25.2020000   18.9300000  
O 14.3350000   23.2530000   20.6750000  
H 17.1810000   20.3370000   17.0550000  
H 18.1150000   19.9490000   15.5380000  
H 15.7450000   23.2530000   14.5860000  
H 13.3820000   25.1480000   19.8630000  
H 14.7060000   22.5460000   21.2120000  
H 14.1250000   24.8140000   16.3830000  
