76
011 
C 13.8830000   20.6360000   28.1960000  
C 12.5250000   20.0680000   27.8530000  
C 12.3810000   19.3530000   26.7610000  
C 13.3980000   19.1050000   25.8050000  
C 14.6970000   19.4970000   26.0010000  
C 15.0580000   20.3320000   27.1920000  
C 11.1750000   18.8660000   26.2170000  
C 11.4670000   18.3210000   24.9520000  
N 12.8620000   18.4020000   24.7850000  
O  9.2390000   17.8020000   24.2570000  
C 10.4910000   17.9100000   23.9060000  
O 10.7260000   17.7660000   22.7090000  
O 16.2380000   20.6100000   27.5140000  
O 14.0260000   21.3480000   29.1650000  
H 11.7440000   20.2250000   28.6420000  
H 10.2370000   19.1530000   26.6750000  
H  9.0090000   18.0650000   25.1610000  
H 13.3950000   18.0980000   23.9620000  
C 15.6300000   19.2450000   24.9080000  
C 15.8550000   20.1870000   23.8410000  
C 16.7900000   20.0200000   22.9030000  
C 17.4260000   18.7850000   22.6630000  
C 17.2340000   17.7880000   23.6970000  
C 16.3650000   18.0130000   24.7900000  
C 15.2180000   21.4450000   23.6280000  
C 15.7700000   21.9180000   22.3780000  
N 16.7810000   21.0790000   22.0390000  
O 14.6840000   23.9860000   22.3980000  
C 15.7060000   23.3220000   21.7710000  
O 16.4090000   23.7690000   20.8870000  
O 17.7660000   16.5120000   23.5250000  
O 16.2710000   17.0330000   25.7330000  
H 14.5110000   21.9640000   24.2840000  
H 14.3240000   23.4720000   23.1310000  
H 17.3410000   21.1670000   21.2350000  
H 18.0600000   16.5890000   22.6170000  
H 16.9270000   16.3650000   25.5080000  
C 18.3020000   18.5160000   21.4590000  
C 19.6780000   18.1650000   21.6220000  
C 20.4580000   17.9450000   20.4810000  
C 19.9940000   18.0290000   19.1500000  
C 18.6540000   18.3340000   18.9840000  
C 17.7820000   18.6100000   20.1000000  
C 20.6920000   18.0540000   22.6920000  
C 21.9240000   17.7760000   22.1700000  
N 21.7880000   17.6610000   20.8120000  
O 23.0140000   17.7830000   24.2290000  
C 23.1860000   17.7120000   22.8770000  
O 24.3060000   17.5940000   22.4220000  
O 18.1810000   18.3370000   17.7110000  
O 16.4130000   18.8810000   19.9740000  
H 20.4770000   18.3030000   23.6830000  
H 22.0280000   17.9650000   24.3080000  
H 22.5110000   17.2500000   20.2450000  
H 18.7410000   17.8780000   17.0460000  
H 16.2560000   18.6310000   18.9770000  
C 21.0080000   17.9180000   18.0070000  
C 21.1190000   16.7110000   17.3000000  
C 21.8910000   16.5830000   16.2090000  
C 22.6950000   17.5890000   15.7410000  
C 22.6720000   18.8040000   16.4410000  
C 21.7800000   19.0000000   17.5560000  
C 20.3560000   15.5040000   17.4920000  
C 20.7020000   14.6720000   16.3780000  
N 21.6600000   15.3460000   15.5640000  
O 19.2300000   12.9040000   16.8710000  
C 20.2120000   13.3420000   16.0200000  
O 20.6560000   12.6480000   15.0950000  
O 23.5260000   19.7650000   16.0720000  
O 21.8200000   20.1630000   18.2970000  
H 19.5790000   15.3340000   18.3060000  
H 19.0730000   13.7030000   17.3540000  
H 22.1250000   14.8380000   14.8210000  
H 23.4750000   20.5550000   16.6460000  
H 20.9840000   20.0900000   18.8110000  
H 23.3670000   17.4500000   14.8530000  
