76
011 
C 18.0140000   17.8800000   29.1190000  
C 19.2890000   18.5030000   29.5110000  
C 20.2240000   18.7960000   28.5040000  
C 19.9500000   18.7000000   27.1540000  
C 18.7630000   18.2550000   26.6760000  
C 17.6640000   17.8510000   27.5990000  
C 21.6080000   18.9380000   28.6130000  
C 22.1250000   19.0380000   27.3130000  
N 21.0780000   18.9710000   26.4130000  
O 24.3560000   19.3260000   28.0330000  
C 23.5360000   19.3200000   26.9840000  
O 23.9740000   19.5610000   25.8980000  
O 16.6110000   17.3080000   27.2570000  
O 17.2980000   17.3190000   29.9290000  
H 19.5100000   18.5440000   30.5580000  
H 22.1180000   18.8410000   29.5540000  
H 23.8880000   18.8360000   28.7740000  
H 21.1940000   19.1760000   25.4090000  
C 18.6600000   18.2120000   25.1990000  
C 18.6620000   17.0500000   24.4250000  
C 18.2750000   17.0270000   23.1380000  
C 18.0310000   18.2710000   22.3960000  
C 18.2870000   19.5140000   23.0980000  
C 18.5500000   19.5190000   24.5180000  
C 18.7320000   15.6670000   24.8940000  
C 18.3790000   14.8910000   23.8110000  
N 18.0960000   15.7180000   22.6850000  
O 18.6920000   12.8800000   24.9920000  
C 18.3840000   13.4410000   23.7450000  
O 18.2160000   12.8320000   22.6890000  
O 18.0510000   20.7110000   22.4790000  
O 18.6080000   20.7410000   25.1780000  
H 19.1480000   15.4380000   25.8790000  
H 18.8220000   13.7400000   25.4030000  
H 17.8420000   15.3840000   21.7330000  
H 18.0470000   20.6550000   21.4730000  
H 18.6910000   21.3780000   24.4670000  
C 17.6040000   18.3080000   20.9410000  
C 16.2220000   18.2820000   20.5780000  
C 15.8570000   18.3620000   19.2690000  
C 16.7170000   18.5240000   18.1680000  
C 18.0600000   18.5310000   18.5480000  
C 18.5600000   18.4530000   19.8850000  
C 14.9640000   18.1400000   21.3470000  
C 13.9280000   18.0040000   20.3430000  
N 14.4520000   18.2530000   19.0400000  
O 12.1800000   17.7690000   21.9920000  
C 12.4720000   17.8670000   20.6870000  
O 11.6040000   17.8130000   19.8450000  
O 19.0050000   18.5880000   17.5130000  
O 19.8860000   18.6180000   20.1300000  
H 14.7910000   18.2560000   22.4080000  
H 12.9940000   17.9080000   22.5270000  
H 13.9170000   18.3330000   18.1770000  
H 18.5620000   18.6790000   16.6370000  
H 20.2740000   18.9670000   19.2920000  
C 16.2210000   18.8360000   16.8020000  
C 16.2900000   20.0990000   16.2230000  
C 15.7490000   20.2950000   14.9730000  
C 15.0970000   19.3230000   14.2280000  
C 15.1020000   18.0370000   14.7880000  
C 15.5650000   17.7730000   16.0940000  
C 16.8170000   21.3650000   16.6480000  
C 16.7230000   22.2740000   15.6520000  
N 16.0350000   21.6330000   14.6070000  
O 17.9690000   24.0880000   16.6690000  
C 17.2420000   23.6980000   15.5890000  
O 17.1690000   24.4380000   14.6300000  
O 14.6300000   16.9580000   14.0040000  
O 15.5370000   16.4960000   16.5240000  
H 17.1890000   21.5990000   17.6340000  
H 17.8070000   23.4240000   17.3460000  
H 15.9250000   21.9050000   13.6080000  
H 14.6760000   16.3210000   14.7940000  
H 15.8950000   16.4490000   17.4490000  
H 14.5950000   19.5850000   13.2900000  
