76
011 
C 10.8040000   20.8300000   24.9750000  
C 10.4190000   19.5450000   25.6760000  
C 11.2580000   18.4860000   25.4600000  
C 12.4910000   18.5620000   24.7990000  
C 13.0850000   19.6500000   24.1660000  
C 12.2340000   20.9130000   24.1510000  
C 11.1150000   17.1130000   25.8390000  
C 12.1700000   16.3440000   25.4160000  
N 13.0250000   17.2960000   24.8100000  
O 11.1840000   14.2800000   26.0450000  
C 12.2720000   14.8080000   25.4190000  
O 13.2580000   14.1770000   25.0870000  
O 12.5520000   21.9480000   23.4950000  
O 10.1110000   21.8250000   25.0190000  
H  9.4440000   19.5080000   26.1570000  
H 10.2120000   16.7130000   26.2670000  
H 10.4910000   14.9030000   25.9270000  
H 13.8190000   17.1180000   24.2580000  
C 14.4020000   19.5010000   23.4560000  
C 14.5310000   18.9180000   22.2360000  
C 15.7140000   18.7400000   21.6730000  
C 16.9970000   19.0360000   22.2620000  
C 16.9250000   19.5630000   23.5700000  
C 15.6100000   19.8190000   24.1380000  
C 13.5620000   18.5140000   21.2750000  
C 14.2740000   18.2010000   20.0990000  
N 15.6080000   18.3050000   20.3790000  
O 12.3570000   17.7340000   18.9150000  
C 13.7040000   17.8080000   18.8150000  
O 14.3240000   17.5580000   17.7950000  
O 18.0680000   19.8640000   24.3000000  
O 15.5280000   20.2160000   25.4700000  
H 12.4720000   18.6560000   21.3080000  
H 12.2070000   18.1750000   19.8090000  
H 16.3810000   18.2090000   19.7150000  
H 18.8250000   20.1520000   23.7430000  
H 16.4380000   20.3160000   25.7600000  
C 18.3550000   18.8660000   21.5580000  
C 19.2690000   19.9350000   21.3360000  
C 20.4480000   19.6610000   20.6630000  
C 20.8050000   18.4320000   20.0200000  
C 19.8470000   17.3890000   20.1710000  
C 18.6690000   17.6130000   20.9500000  
C 19.2360000   21.3230000   21.6230000  
C 20.4390000   21.8490000   21.1330000  
N 21.1830000   20.8160000   20.5280000  
O 20.1950000   23.9570000   22.1190000  
C 21.0130000   23.1970000   21.3320000  
O 22.0080000   23.6640000   20.8450000  
O 20.1510000   16.2100000   19.6530000  
O 17.9130000   16.4580000   21.2300000  
H 18.4140000   21.7510000   22.1280000  
H 19.4060000   23.3980000   22.3200000  
H 22.1270000   20.8910000   20.3880000  
H 20.9990000   16.1890000   19.2130000  
H 18.4050000   15.7540000   20.8470000  
C 22.0400000   18.2480000   19.1930000  
C 22.9430000   17.1960000   19.4860000  
C 24.0670000   17.0280000   18.7260000  
C 24.3150000   17.7990000   17.5980000  
C 23.3080000   18.7340000   17.2030000  
C 22.1920000   18.9380000   17.9940000  
C 23.1620000   16.4200000   20.6960000  
C 24.3740000   15.7140000   20.4720000  
N 24.8470000   16.0340000   19.2040000  
O 24.6330000   14.7820000   22.7150000  
C 25.1740000   14.8540000   21.3920000  
O 26.1220000   14.2160000   21.0800000  
O 23.3970000   19.2170000   15.9910000  
O 21.1810000   19.7990000   17.6140000  
H 22.5470000   16.4370000   21.6400000  
H 23.7820000   15.2140000   22.6720000  
H 25.6240000   15.5790000   18.7210000  
H 22.6260000   19.7430000   15.7430000  
H 20.5130000   19.6590000   18.3220000  
H 25.1700000   17.5080000   17.0290000  
