76
011 
C 23.2640000   14.1910000   24.6950000  
C 22.6210000   13.5370000   25.8630000  
C 21.2690000   13.6850000   26.0260000  
C 20.4210000   14.3680000   25.2010000  
C 20.9030000   15.1340000   24.1420000  
C 22.3620000   15.0300000   23.7550000  
C 20.4150000   13.1490000   27.0340000  
C 19.0840000   13.5560000   26.8130000  
N 19.1540000   14.3070000   25.6400000  
O 18.0840000   12.4030000   28.6140000  
C 17.8520000   13.2280000   27.5650000  
O 16.7360000   13.6350000   27.3150000  
O 22.8020000   15.5580000   22.7640000  
O 24.4560000   13.9730000   24.5240000  
H 23.2430000   12.8990000   26.6170000  
H 20.8200000   12.6900000   27.9530000  
H 19.0800000   12.5570000   28.7130000  
H 18.2820000   14.6360000   25.1250000  
C 19.9780000   16.0270000   23.4190000  
C 19.5340000   17.2650000   23.9610000  
C 18.6390000   18.0560000   23.3950000  
C 18.1270000   17.8870000   22.0640000  
C 18.4940000   16.6010000   21.4950000  
C 19.3740000   15.7240000   22.1710000  
C 19.9530000   17.8130000   25.2160000  
C 19.1350000   18.9200000   25.3890000  
N 18.3170000   19.0590000   24.2820000  
O 19.9280000   19.3680000   27.6030000  
C 19.1280000   19.7940000   26.6150000  
O 18.4670000   20.8150000   26.6710000  
O 18.1040000   16.3260000   20.2180000  
O 19.8240000   14.7030000   21.4080000  
H 20.6900000   17.4180000   25.8990000  
H 20.4610000   18.7020000   27.1080000  
H 17.5390000   19.6980000   24.1080000  
H 17.3780000   16.9660000   20.0500000  
H 19.4020000   14.8320000   20.4960000  
C 17.2130000   18.8830000   21.3940000  
C 17.5490000   19.3900000   20.0880000  
C 16.7980000   20.3300000   19.4480000  
C 15.6410000   20.9720000   20.0820000  
C 15.2140000   20.3540000   21.2840000  
C 15.9410000   19.3100000   21.9290000  
C 18.8150000   19.4060000   19.3760000  
C 18.6340000   20.1870000   18.2030000  
N 17.4000000   20.8330000   18.3000000  
O 20.7070000   19.6210000   17.1270000  
C 19.6020000   20.3300000   17.0860000  
O 19.3260000   21.0620000   16.1630000  
O 13.9070000   20.6210000   21.6630000  
O 15.5770000   18.8110000   23.1310000  
H 19.6600000   18.7650000   19.5150000  
H 20.7430000   19.1960000   17.9730000  
H 17.0250000   21.4800000   17.6040000  
H 13.3640000   20.8170000   20.8730000  
H 14.7940000   19.4190000   23.3710000  
C 14.7190000   22.0140000   19.4010000  
C 14.1830000   21.8770000   18.0970000  
C 13.3270000   22.8630000   17.6070000  
C 13.0330000   24.0080000   18.3190000  
C 13.5690000   24.1510000   19.6460000  
C 14.5090000   23.1950000   20.1500000  
C 14.3400000   20.9020000   17.1330000  
C 13.5700000   21.2810000   16.0450000  
N 12.9730000   22.5140000   16.3280000  
O 14.0100000   19.3480000   14.6770000  
C 13.2770000   20.5010000   14.8370000  
O 12.5030000   20.9080000   13.9780000  
O 13.2420000   25.2500000   20.4090000  
O 15.1970000   23.4200000   21.3050000  
H 14.7290000   19.9080000   17.2610000  
H 14.7730000   19.3630000   15.3220000  
H 12.1990000   22.9010000   15.8030000  
H 13.9290000   25.3920000   21.1340000  
H 15.7380000   22.6460000   21.3910000  
H 12.2260000   24.6560000   18.0070000  
