76
011 
C 11.2640000   14.6280000   22.1550000  
C 10.1560000   15.5840000   22.3930000  
C 10.5290000   16.9200000   22.6740000  
C 11.8010000   17.3780000   22.5670000  
C 12.8530000   16.6200000   22.2490000  
C 12.7300000   15.1450000   22.0290000  
C  9.6950000   18.1060000   22.9210000  
C 10.5100000   19.2200000   23.1830000  
N 11.8120000   18.7460000   22.8380000  
O  8.7960000   20.8600000   23.6860000  
C 10.1160000   20.5980000   23.5310000  
O 11.0420000   21.4440000   23.6000000  
O 13.6740000   14.3680000   22.0460000  
O 11.0860000   13.3940000   22.0670000  
H  9.0960000   15.2430000   22.4520000  
H  8.6010000   18.1510000   22.9100000  
H  8.3070000   19.9670000   23.6500000  
H 12.6340000   19.2760000   22.8520000  
C 14.1310000   17.3860000   22.2120000  
C 15.1580000   17.2470000   23.1890000  
C 16.3690000   17.8450000   23.0320000  
C 16.7860000   18.6090000   21.9240000  
C 15.7550000   18.7810000   20.9510000  
C 14.4750000   18.1090000   21.0800000  
C 15.2160000   16.3700000   24.3180000  
C 16.5260000   16.5490000   24.8220000  
N 17.2590000   17.3610000   23.9600000  
O 16.0520000   15.1010000   26.6470000  
C 16.9950000   15.8460000   26.0610000  
O 18.1470000   16.0240000   26.4950000  
O 15.9460000   19.5470000   19.9030000  
O 13.5320000   18.3180000   20.1210000  
H 14.3310000   15.7390000   24.6990000  
H 15.2770000   15.3460000   26.1120000  
H 18.2550000   17.7880000   24.1000000  
H 16.7710000   20.0350000   20.1480000  
H 14.1390000   18.6090000   19.3650000  
C 18.1260000   19.1460000   21.7120000  
C 19.1890000   18.2910000   21.2810000  
C 20.4340000   18.7880000   21.1780000  
C 20.7750000   20.1110000   21.2860000  
C 19.7520000   20.9920000   21.6370000  
C 18.4310000   20.5530000   21.7830000  
C 19.2330000   16.8680000   20.9680000  
C 20.5640000   16.5990000   20.5580000  
N 21.3530000   17.7740000   20.7890000  
O 20.2420000   14.3790000   19.9120000  
C 21.1680000   15.3610000   20.0510000  
O 22.3100000   15.2230000   19.7100000  
O 20.0730000   22.3370000   21.7930000  
O 17.4440000   21.4520000   21.8920000  
H 18.3750000   16.1200000   20.9920000  
H 19.4200000   14.8910000   19.9160000  
H 22.2700000   17.9180000   20.4180000  
H 20.9570000   22.4240000   21.3870000  
H 17.8300000   22.3060000   21.7740000  
C 22.2220000   20.4610000   21.3570000  
C 22.9900000   20.5650000   20.1340000  
C 24.3010000   20.9430000   20.2050000  
C 24.8780000   21.4530000   21.3320000  
C 24.0940000   21.3900000   22.5260000  
C 22.8320000   20.8170000   22.5650000  
C 22.6500000   20.3620000   18.7380000  
C 23.8490000   20.6330000   18.0150000  
N 24.8480000   20.9430000   18.9470000  
O 22.7240000   20.7170000   15.9970000  
C 23.9580000   20.7600000   16.5300000  
O 24.9590000   21.0370000   15.8830000  
O 24.8780000   21.5130000   23.6280000  
O 22.2190000   20.6740000   23.8160000  
H 21.6720000   20.1150000   18.3360000  
H 22.1820000   20.5420000   16.7970000  
H 25.8150000   21.1290000   18.7050000  
H 24.4210000   21.2410000   24.4520000  
H 21.2920000   20.3610000   23.6480000  
H 25.9680000   21.7670000   21.3750000  
