76
011 
C 18.4000000   21.7730000   28.7170000  
C 19.3350000   20.8450000   29.3590000  
C 19.7900000   19.7060000   28.7030000  
C 19.3480000   19.3480000   27.4490000  
C 18.4160000   20.0830000   26.6710000  
C 17.9060000   21.3730000   27.2730000  
C 20.7350000   18.7010000   29.0560000  
C 20.8710000   17.7860000   27.9920000  
N 19.9470000   18.2110000   27.0200000  
O 22.5140000   16.3790000   28.9630000  
C 21.7430000   16.6460000   27.8430000  
O 21.7730000   15.9280000   26.8730000  
O 17.1010000   22.0620000   26.6700000  
O 17.9660000   22.7500000   29.2900000  
H 19.5690000   21.2310000   30.3820000  
H 21.2960000   18.6960000   30.0380000  
H 22.2960000   17.1070000   29.5930000  
H 19.6770000   17.6850000   26.2180000  
C 18.0330000   19.6870000   25.3210000  
C 17.3430000   18.4750000   24.9780000  
C 17.2640000   18.0400000   23.6630000  
C 17.8380000   18.6750000   22.5770000  
C 18.4300000   19.9200000   22.8430000  
C 18.5090000   20.3580000   24.2140000  
C 16.9140000   17.3320000   25.7710000  
C 16.4600000   16.3250000   24.8810000  
N 16.6700000   16.8100000   23.5550000  
O 15.4900000   15.0840000   26.6470000  
C 15.7940000   15.0610000   25.3220000  
O 15.3800000   14.2070000   24.5190000  
O 18.9830000   20.6760000   21.8890000  
O 19.2250000   21.5100000   24.4180000  
H 16.8810000   17.2590000   26.9140000  
H 15.7150000   15.9790000   26.9080000  
H 16.2260000   16.4390000   22.7320000  
H 19.3020000   20.3330000   20.9620000  
H 19.5400000   21.8650000   23.5640000  
C 17.6530000   18.2670000   21.1040000  
C 16.8500000   19.0980000   20.2570000  
C 16.6460000   18.7500000   18.9300000  
C 17.1960000   17.6250000   18.2690000  
C 18.0040000   16.8190000   19.1270000  
C 18.1640000   17.0670000   20.5380000  
C 15.9780000   20.2040000   20.5340000  
C 15.3390000   20.5390000   19.3830000  
N 15.7670000   19.6530000   18.3310000  
O 13.6850000   22.0990000   20.2640000  
C 14.2520000   21.5960000   19.1780000  
O 13.7940000   21.8940000   18.0850000  
O 18.5020000   15.6990000   18.5620000  
O 18.9720000   16.2340000   21.2140000  
H 15.9250000   20.7520000   21.5090000  
H 14.2010000   21.6170000   20.9020000  
H 15.3740000   19.5810000   17.3850000  
H 18.0440000   15.4630000   17.7320000  
H 18.8590000   15.3480000   20.8730000  
C 16.7600000   17.2210000   16.9120000  
C 17.3430000   17.7690000   15.7960000  
C 16.9400000   17.4420000   14.5270000  
C 15.9910000   16.4150000   14.3070000  
C 15.4340000   15.7490000   15.4380000  
C 15.8290000   16.1920000   16.7620000  
C 18.3680000   18.7070000   15.7010000  
C 18.6140000   18.9530000   14.3510000  
N 17.6770000   18.1950000   13.6400000  
O 20.0010000   20.8710000   14.5860000  
C 19.3630000   20.0840000   13.7310000  
O 19.4100000   20.3480000   12.5340000  
O 14.4300000   14.8470000   15.4100000  
O 15.1620000   15.7050000   17.8530000  
H 18.7840000   19.2820000   16.5470000  
H 19.8400000   20.5470000   15.5660000  
H 17.5050000   18.3710000   12.6420000  
H 14.1250000   14.6930000   16.3240000  
H 15.4230000   16.2640000   18.6220000  
H 15.7040000   16.3390000   13.2730000  
