76
011 
C 14.3410000   11.9430000   19.3310000  
C 13.0830000   12.1340000   20.1120000  
C 12.8250000   13.2090000   20.9130000  
C 13.7790000   14.2490000   20.9990000  
C 15.0170000   14.2080000   20.4020000  
C 15.3760000   13.0340000   19.5650000  
C 11.7330000   13.6240000   21.6070000  
C 12.0460000   14.7680000   22.3150000  
N 13.3170000   15.1310000   21.8940000  
O 10.0900000   14.6380000   23.6270000  
C 11.1530000   15.4020000   23.3450000  
O 11.3140000   16.5000000   23.8890000  
O 16.5300000   12.8160000   19.1900000  
O 14.4590000   11.0630000   18.5070000  
H 12.2680000   11.4040000   19.8760000  
H 10.7350000   13.0670000   21.5800000  
H 10.2520000   13.7270000   23.3280000  
H 13.8660000   15.9480000   22.1740000  
C 15.9070000   15.3840000   20.5720000  
C 17.1330000   15.2900000   21.1690000  
C 17.9010000   16.3910000   21.3890000  
C 17.4990000   17.7250000   21.1520000  
C 16.2640000   17.8640000   20.5010000  
C 15.4730000   16.7110000   20.2250000  
C 17.6830000   14.2370000   21.9010000  
C 18.7500000   14.7310000   22.6070000  
N 18.9010000   16.1020000   22.2430000  
O 19.6910000   12.8250000   23.6780000  
C 19.8480000   14.0830000   23.3930000  
O 20.7380000   14.6560000   23.9230000  
O 15.7470000   19.1120000   20.1130000  
O 14.2400000   16.8600000   19.5980000  
H 17.3650000   13.1840000   21.9400000  
H 18.7460000   12.5900000   23.5070000  
H 19.5760000   16.7270000   22.6390000  
H 16.2350000   19.7830000   20.6080000  
H 14.1930000   17.8380000   19.6230000  
C 18.2700000   18.8950000   21.5960000  
C 18.7750000   19.7680000   20.6120000  
C 19.6800000   20.7380000   20.8980000  
C 20.0210000   21.0790000   22.2130000  
C 19.4180000   20.2850000   23.2900000  
C 18.5760000   19.2120000   22.9450000  
C 18.6000000   19.7990000   19.1500000  
C 19.3930000   20.8770000   18.7160000  
N 19.9330000   21.5690000   19.8020000  
O 18.7820000   20.5580000   16.3640000  
C 19.4420000   21.3010000   17.2930000  
O 20.0750000   22.2830000   16.9660000  
O 19.7790000   20.4990000   24.5970000  
O 17.9900000   18.5370000   23.9810000  
H 17.9980000   19.0570000   18.5460000  
H 18.2940000   19.7910000   16.7640000  
H 20.3190000   22.5110000   19.8130000  
H 20.1960000   21.4160000   24.6020000  
H 18.4910000   18.6300000   24.8040000  
C 20.9380000   22.2290000   22.5130000  
C 20.4530000   23.3970000   23.1690000  
C 21.2440000   24.4590000   23.4830000  
C 22.5730000   24.5140000   23.0480000  
C 23.1330000   23.3260000   22.4710000  
C 22.3120000   22.1970000   22.1840000  
C 19.1680000   23.6370000   23.7840000  
C 19.2240000   24.9510000   24.3800000  
N 20.5340000   25.3990000   24.2030000  
O 17.0050000   25.0220000   25.1720000  
C 18.1990000   25.6330000   25.0760000  
O 18.3330000   26.7370000   25.5560000  
O 24.4640000   23.2170000   22.2740000  
O 22.7980000   21.0320000   21.6360000  
H 18.3740000   22.8680000   23.8640000  
H 17.1490000   24.1130000   24.8900000  
H 20.9090000   26.3250000   24.4880000  
H 24.5630000   22.3370000   21.8110000  
H 22.0100000   20.5570000   21.4920000  
H 23.1840000   25.3420000   23.2080000  
