76
011 
C 19.5750000   19.3600000   28.8820000  
C 18.2310000   19.4910000   29.5710000  
C 17.0660000   19.4500000   28.7750000  
C 17.0320000   19.0440000   27.4900000  
C 18.1660000   18.9470000   26.7400000  
C 19.5300000   19.1040000   27.3510000  
C 15.6770000   19.6320000   29.1560000  
C 14.8470000   19.4070000   28.0940000  
N 15.7530000   19.0480000   27.0130000  
O 12.6860000   19.5000000   29.1860000  
C 13.3410000   19.4670000   27.9970000  
O 12.8700000   19.3720000   26.8850000  
O 20.5740000   18.9780000   26.7120000  
O 20.6110000   19.5390000   29.3960000  
H 18.2920000   19.6780000   30.6770000  
H 15.4500000   20.0100000   30.0770000  
H 13.3120000   19.6370000   29.8590000  
H 15.4540000   18.9680000   26.0640000  
C 17.9660000   18.7800000   25.3550000  
C 17.5020000   19.8690000   24.5630000  
C 17.4180000   19.7360000   23.2190000  
C 17.7890000   18.6410000   22.4930000  
C 18.2770000   17.5830000   23.2440000  
C 18.3990000   17.6270000   24.6580000  
C 17.0850000   21.1880000   24.8700000  
C 16.6590000   21.7700000   23.6490000  
N 17.0200000   20.9270000   22.5840000  
O 16.0010000   23.8640000   24.5780000  
C 16.2230000   23.1520000   23.4570000  
O 16.1350000   23.6410000   22.3620000  
O 18.9060000   16.5820000   22.5480000  
O 18.8900000   16.5020000   25.3060000  
H 17.0560000   21.6100000   25.8970000  
H 15.9030000   23.3500000   25.3750000  
H 16.7260000   21.0600000   21.6260000  
H 18.7470000   16.9130000   21.6370000  
H 19.1000000   15.7750000   24.6210000  
C 17.7770000   18.4840000   21.0300000  
C 19.0070000   18.6250000   20.3030000  
C 19.0090000   18.4660000   18.9440000  
C 17.8590000   18.2940000   18.1400000  
C 16.6340000   18.3080000   18.8190000  
C 16.5770000   18.4160000   20.2440000  
C 20.3970000   18.4910000   20.7670000  
C 21.1380000   18.2690000   19.6090000  
N 20.2690000   18.2820000   18.4990000  
O 23.3910000   18.1010000   20.6450000  
C 22.6040000   18.0360000   19.5340000  
O 23.1680000   17.7940000   18.4990000  
O 15.4840000   18.1590000   18.0570000  
O 15.4000000   18.5350000   20.8830000  
H 20.7500000   18.6440000   21.7980000  
H 22.8390000   18.3030000   21.4130000  
H 20.5580000   17.8760000   17.6180000  
H 15.7690000   17.9600000   17.1750000  
H 14.7160000   18.6880000   20.2270000  
C 17.9860000   17.9870000   16.7100000  
C 17.4730000   16.7510000   16.2010000  
C 17.4500000   16.4670000   14.8680000  
C 17.8200000   17.4330000   13.9160000  
C 18.3430000   18.6810000   14.3900000  
C 18.3760000   18.9650000   15.7520000  
C 16.8460000   15.6210000   16.8710000  
C 16.3360000   14.7620000   15.8910000  
N 16.7140000   15.3040000   14.6080000  
O 15.5140000   13.1520000   17.4370000  
C 15.7340000   13.4430000   16.1380000  
O 15.6200000   12.4820000   15.3550000  
O 18.7210000   19.6130000   13.5120000  
O 18.7540000   20.1850000   16.2040000  
H 16.9190000   15.3630000   17.8830000  
H 15.7080000   13.9600000   17.8170000  
H 16.6020000   14.9030000   13.7030000  
H 19.0910000   20.4160000   13.8820000  
H 18.9910000   20.0250000   17.1300000  
H 17.7550000   17.2810000   12.8340000  
