76
011 
C 13.1510000   12.9950000   24.2380000  
C 13.6420000   11.7950000   23.5080000  
C 14.8160000   11.8150000   22.8990000  
C 15.5470000   12.9750000   22.5910000  
C 15.1520000   14.1900000   23.0440000  
C 13.9260000   14.3780000   23.9040000  
C 15.5860000   10.7380000   22.2850000  
C 16.6810000   11.2950000   21.6960000  
N 16.6390000   12.7020000   21.8520000  
O 17.7140000    9.2880000   21.0730000  
C 17.7430000   10.5820000   20.9330000  
O 18.6490000   11.1670000   20.4490000  
O 13.4810000   15.5040000   24.2020000  
O 12.1280000   12.9740000   24.8620000  
H 13.0730000   10.9440000   23.4970000  
H 15.3140000    9.6890000   22.3160000  
H 16.9360000    9.1800000   21.6690000  
H 17.1730000   13.3960000   21.3340000  
C 16.0540000   15.2670000   22.7060000  
C 16.0760000   15.9660000   21.5410000  
C 16.8430000   17.1250000   21.4350000  
C 17.6110000   17.6990000   22.4060000  
C 17.6270000   16.9780000   23.6180000  
C 16.8990000   15.7410000   23.7800000  
C 15.3020000   15.8430000   20.3190000  
C 15.7250000   16.8640000   19.4810000  
N 16.7390000   17.5590000   20.1110000  
O 14.2270000   16.3950000   17.6820000  
C 15.1340000   17.2700000   18.1800000  
O 15.5310000   18.1870000   17.5210000  
O 18.2280000   17.5350000   24.6660000  
O 16.9210000   15.0920000   24.9990000  
H 14.5550000   15.1210000   20.1260000  
H 14.1690000   15.6750000   18.2780000  
H 17.2500000   18.2850000   19.7210000  
H 18.1450000   18.4690000   24.5490000  
H 17.2570000   15.7160000   25.7880000  
C 18.2890000   19.0690000   22.2790000  
C 17.5510000   20.2570000   22.2200000  
C 18.0790000   21.3830000   21.6760000  
C 19.3780000   21.4650000   21.0830000  
C 20.1480000   20.2590000   21.1250000  
C 19.6190000   19.0720000   21.7380000  
C 16.1820000   20.5510000   22.5230000  
C 16.0360000   21.8980000   22.2420000  
N 17.2220000   22.4140000   21.6850000  
O 13.8710000   22.0420000   23.1550000  
C 14.7730000   22.6320000   22.3450000  
O 14.5240000   23.6490000   21.7790000  
O 21.3920000   20.3010000   20.6540000  
O 20.3450000   17.9160000   21.6600000  
H 15.5190000   19.8380000   22.9970000  
H 14.3750000   21.3740000   23.5480000  
H 17.4140000   23.4030000   21.3820000  
H 21.5540000   21.0990000   20.0540000  
H 21.2600000   18.1390000   21.3270000  
C 19.9160000   22.7180000   20.4840000  
C 20.9620000   23.4090000   21.1550000  
C 21.4490000   24.6250000   20.6620000  
C 20.8910000   25.2880000   19.5680000  
C 19.9120000   24.5770000   18.8500000  
C 19.4070000   23.3170000   19.3470000  
C 21.7360000   23.1200000   22.3740000  
C 22.5170000   24.2180000   22.5890000  
N 22.3170000   25.1510000   21.5970000  
O 23.4920000   23.3690000   24.6050000  
C 23.4950000   24.3460000   23.6820000  
O 24.2670000   25.3300000   23.8160000  
O 19.3990000   25.0700000   17.6640000  
O 18.4030000   22.7290000   18.7020000  
H 21.6470000   22.2720000   23.0970000  
H 22.6590000   22.9180000   24.4650000  
H 22.8800000   25.9420000   21.4360000  
H 18.9470000   24.3470000   17.2190000  
H 17.9560000   22.1360000   19.2320000  
H 21.2520000   26.2540000   19.1220000  
