76
011 
C 19.2150000   18.9000000   29.0910000  
C 20.5320000   18.2660000   29.1480000  
C 21.0970000   17.6350000   28.0290000  
C 20.4080000   17.4690000   26.8250000  
C 19.1800000   18.1210000   26.5280000  
C 18.4930000   18.7780000   27.6900000  
C 22.3520000   16.9920000   27.8810000  
C 22.5180000   16.6560000   26.5430000  
N 21.2940000   16.9830000   25.9160000  
O 24.8470000   16.0230000   26.6810000  
C 23.6990000   16.0960000   25.9540000  
O 23.7040000   15.7230000   24.7870000  
O 17.4480000   19.3750000   27.5710000  
O 18.6220000   19.3280000   30.0740000  
H 21.0230000   18.2690000   30.0870000  
H 23.1700000   16.9430000   28.5680000  
H 24.6490000   16.4290000   27.5740000  
H 21.0880000   17.0370000   24.9080000  
C 18.7610000   18.0980000   25.1360000  
C 17.6650000   17.3750000   24.7950000  
C 17.1090000   17.4450000   23.5770000  
C 17.5620000   18.3090000   22.5980000  
C 18.7870000   19.0330000   22.8880000  
C 19.3770000   18.8830000   24.1500000  
C 17.1280000   16.1420000   25.3850000  
C 16.1760000   15.6270000   24.4700000  
N 16.2220000   16.5130000   23.3110000  
O 15.2180000   13.8570000   25.8000000  
C 15.1920000   14.5640000   24.6490000  
O 14.3100000   14.3280000   23.8900000  
O 19.3680000   19.8990000   21.9370000  
O 20.5050000   19.6390000   24.4320000  
H 17.4080000   15.6840000   26.3380000  
H 15.8380000   14.3330000   26.4370000  
H 15.6750000   16.5280000   22.4890000  
H 18.5660000   20.1960000   21.4530000  
H 20.9970000   19.8200000   23.6110000  
C 16.9580000   18.4410000   21.2660000  
C 16.1780000   19.5650000   20.9180000  
C 15.6530000   19.7290000   19.6500000  
C 15.9460000   18.8790000   18.5320000  
C 16.7590000   17.7700000   18.8450000  
C 17.2850000   17.5970000   20.1480000  
C 15.7500000   20.7600000   21.6300000  
C 14.9890000   21.5890000   20.7400000  
N 14.9950000   20.9120000   19.4880000  
O 14.8260000   23.2940000   22.2180000  
C 14.5240000   22.9480000   21.0030000  
O 13.8600000   23.6800000   20.2470000  
O 17.0970000   16.9070000   17.8490000  
O 18.1510000   16.5490000   20.2960000  
H 16.1970000   21.0870000   22.5660000  
H 15.0780000   22.5280000   22.7040000  
H 14.5230000   21.2820000   18.6920000  
H 16.9460000   17.2900000   16.9890000  
H 17.8190000   15.6900000   19.9560000  
C 15.5000000   19.0910000   17.1190000  
C 16.4090000   19.4130000   16.1030000  
C 16.0560000   19.5540000   14.7800000  
C 14.7960000   19.1840000   14.3330000  
C 13.8240000   18.8980000   15.3530000  
C 14.1830000   18.8910000   16.7150000  
C 17.8610000   19.6250000   16.2090000  
C 18.2470000   19.9450000   14.9300000  
N 17.1720000   19.9410000   14.0500000  
O 20.6040000   19.9150000   15.4600000  
C 19.6330000   20.1960000   14.5410000  
O 19.9150000   20.4230000   13.3390000  
O 12.5140000   18.7700000   15.0110000  
O 13.2300000   18.6530000   17.6390000  
H 18.5080000   19.5310000   17.0940000  
H 20.0840000   19.6380000   16.2450000  
H 17.2080000   20.0130000   13.0500000  
H 11.9820000   18.8760000   15.8020000  
H 13.6420000   18.7360000   18.4660000  
H 14.5320000   19.0750000   13.2840000  
