76
011 
C 13.7350000   12.4520000   24.3380000  
C 13.0610000   11.9870000   23.1040000  
C 13.4170000   12.6620000   21.8910000  
C 14.2940000   13.6510000   21.7570000  
C 14.8330000   14.3190000   22.8060000  
C 14.6440000   13.7620000   24.1780000  
C 12.9690000   12.3450000   20.5540000  
C 13.5350000   13.2350000   19.6150000  
N 14.2920000   14.0850000   20.4520000  
O 12.7550000   12.2390000   17.5920000  
C 13.4290000   13.3140000   18.1610000  
O 13.8990000   14.2090000   17.4440000  
O 15.0500000   14.3740000   25.1310000  
O 13.5200000   11.9840000   25.4260000  
H 12.4890000   11.0670000   23.1780000  
H 12.2850000   11.4990000   20.3690000  
H 12.3610000   11.7420000   18.3470000  
H 14.6610000   14.9460000   20.1170000  
C 15.6450000   15.5080000   22.5300000  
C 15.2290000   16.8280000   22.8320000  
C 15.9670000   17.8930000   22.4210000  
C 17.1920000   17.7530000   21.6890000  
C 17.5890000   16.4270000   21.4080000  
C 16.8570000   15.3240000   21.8440000  
C 13.9880000   17.3300000   23.3250000  
C 14.0500000   18.7230000   23.2710000  
N 15.3070000   19.0520000   22.7100000  
O 11.9390000   19.2150000   24.3370000  
C 13.0360000   19.7300000   23.6920000  
O 13.0150000   20.8970000   23.3420000  
O 18.7680000   16.2680000   20.6980000  
O 17.2760000   14.0310000   21.5460000  
H 12.9920000   16.8580000   23.5220000  
H 12.1770000   18.2650000   24.5460000  
H 15.6560000   19.9360000   22.5200000  
H 18.7870000   17.1340000   20.0990000  
H 18.1360000   14.0990000   21.0180000  
C 17.9910000   18.9670000   21.2490000  
C 18.4400000   19.9310000   22.1670000  
C 19.1880000   21.0200000   21.8420000  
C 19.5930000   21.3230000   20.5310000  
C 19.1220000   20.4610000   19.4960000  
C 18.3520000   19.3770000   19.8850000  
C 18.2620000   19.9610000   23.6130000  
C 18.9690000   21.0540000   24.0570000  
N 19.4830000   21.7320000   22.9290000  
O 18.4300000   20.5170000   26.2700000  
C 18.9650000   21.4410000   25.4540000  
O 19.4120000   22.5180000   25.8100000  
O 19.4750000   20.8260000   18.2150000  
O 17.9150000   18.5520000   18.8230000  
H 17.9310000   19.1450000   24.2630000  
H 18.4080000   19.6550000   25.6950000  
H 19.9490000   22.5750000   22.9770000  
H 20.0740000   21.6330000   18.3400000  
H 18.4060000   18.8820000   18.0570000  
C 20.6290000   22.4630000   20.2540000  
C 21.9520000   22.3560000   20.7380000  
C 22.8960000   23.3160000   20.4960000  
C 22.5600000   24.5490000   19.9450000  
C 21.2490000   24.6900000   19.4300000  
C 20.3030000   23.6340000   19.5570000  
C 22.6730000   21.3090000   21.4550000  
C 24.0210000   21.7380000   21.6100000  
N 24.1500000   22.9660000   20.9610000  
O 24.6790000   19.7630000   22.6630000  
C 25.1610000   20.9600000   22.1050000  
O 26.3000000   21.3730000   22.0020000  
O 20.9540000   25.8520000   18.7500000  
O 19.0770000   23.8220000   19.1440000  
H 22.2910000   20.3420000   21.7770000  
H 23.7910000   19.6570000   22.3190000  
H 24.9920000   23.5150000   20.9320000  
H 20.1330000   25.6910000   18.1810000  
H 18.5320000   23.0150000   19.0340000  
H 23.3020000   25.3000000   19.8340000  
