76
011 
C 16.0120000   18.7190000   29.1530000  
C 16.8450000   19.7840000   29.6910000  
C 17.7170000   20.4480000   28.8470000  
C 17.8090000   20.1540000   27.5160000  
C 17.1290000   19.2020000   26.8230000  
C 16.2840000   18.2910000   27.6360000  
C 18.5640000   21.5400000   29.1230000  
C 19.2580000   21.8630000   27.9510000  
N 18.7260000   21.0620000   26.9790000  
O 20.5540000   23.7190000   28.8330000  
C 20.2380000   22.8940000   27.7470000  
O 20.6130000   23.1210000   26.5760000  
O 15.9380000   17.1790000   27.2380000  
O 15.3320000   18.0320000   29.9310000  
H 16.8480000   19.9870000   30.7830000  
H 18.7380000   21.9610000   30.1350000  
H 20.0220000   23.3430000   29.5230000  
H 18.7420000   21.3040000   26.0160000  
C 17.3230000   18.9880000   25.4070000  
C 18.0520000   17.8970000   24.9740000  
C 18.3210000   17.6860000   23.5860000  
C 17.7320000   18.4180000   22.5270000  
C 16.9770000   19.5340000   22.9910000  
C 16.8070000   19.8280000   24.3940000  
C 18.8520000   16.9350000   25.6110000  
C 19.4550000   16.1130000   24.6190000  
N 19.1810000   16.6470000   23.3590000  
O 20.3030000   14.5700000   26.2200000  
C 20.2420000   14.8510000   24.9500000  
O 20.9120000   14.1780000   24.2030000  
O 16.4230000   20.4420000   22.1430000  
O 16.0880000   20.9280000   24.8130000  
H 18.8790000   16.8030000   26.6360000  
H 19.8740000   15.3550000   26.6950000  
H 19.3370000   16.3390000   22.4380000  
H 16.5030000   20.0810000   21.2840000  
H 15.8750000   21.3780000   23.9790000  
C 17.8940000   18.0690000   21.0900000  
C 16.7850000   17.7720000   20.3250000  
C 16.8450000   17.3470000   18.9980000  
C 18.0250000   17.4310000   18.2410000  
C 19.1910000   17.6430000   19.0020000  
C 19.0870000   17.8720000   20.4130000  
C 15.3730000   17.7320000   20.5970000  
C 14.6590000   17.5150000   19.3750000  
N 15.5970000   17.2060000   18.4010000  
O 12.5170000   18.1180000   20.0690000  
C 13.2020000   17.6100000   19.0990000  
O 12.5910000   17.4060000   18.0710000  
O 20.4120000   17.8710000   18.4330000  
O 20.2210000   18.1550000   21.1260000  
H 14.9290000   17.8920000   21.5740000  
H 12.9870000   18.0020000   20.9370000  
H 15.4160000   17.2880000   17.3710000  
H 20.2900000   18.0400000   17.4870000  
H 21.0000000   17.9350000   20.5680000  
C 18.1200000   17.1860000   16.7710000  
C 18.0630000   18.2620000   15.8270000  
C 17.8960000   17.9470000   14.4840000  
C 17.8030000   16.6310000   14.0010000  
C 17.8400000   15.5830000   14.9580000  
C 17.9920000   15.8400000   16.3090000  
C 17.9280000   19.7180000   15.9070000  
C 17.8260000   20.2320000   14.6300000  
N 17.8380000   19.1500000   13.7750000  
O 17.5230000   22.5550000   15.2230000  
C 17.6190000   21.6900000   14.2250000  
O 17.5020000   21.9510000   13.0610000  
O 17.8200000   14.2790000   14.4830000  
O 17.9910000   14.8110000   17.2380000  
H 17.9470000   20.3060000   16.7830000  
H 17.4670000   22.0200000   15.9830000  
H 17.7740000   19.1570000   12.7520000  
H 17.5190000   13.6870000   15.1430000  
H 17.9150000   15.2850000   18.0860000  
H 17.7260000   16.3630000   12.9990000  
