76
011 
C 20.2670000   19.4310000   28.7820000  
C 21.1310000   18.2450000   28.9690000  
C 21.3820000   17.4280000   27.9070000  
C 20.8180000   17.6030000   26.6590000  
C 19.9590000   18.6790000   26.3470000  
C 19.5530000   19.6360000   27.3460000  
C 22.1350000   16.2290000   27.7950000  
C 21.9310000   15.6320000   26.4760000  
N 21.1810000   16.5660000   25.7900000  
O 23.1560000   13.5490000   26.6580000  
C 22.4550000   14.3970000   25.8610000  
O 22.3040000   14.1460000   24.6810000  
O 18.8290000   20.5600000   27.0670000  
O 20.0190000   20.2120000   29.6440000  
H 21.5860000   18.0600000   29.9240000  
H 22.6890000   15.8210000   28.6780000  
H 23.1610000   13.9580000   27.5440000  
H 20.9540000   16.4710000   24.7980000  
C 19.3190000   18.6300000   25.0200000  
C 17.9820000   18.3100000   24.9940000  
C 17.3260000   18.2250000   23.8170000  
C 17.9030000   18.4160000   22.5210000  
C 19.2420000   18.7260000   22.5540000  
C 20.0120000   18.8190000   23.7770000  
C 16.9340000   18.3710000   26.0260000  
C 15.7010000   18.3820000   25.3470000  
N 16.0250000   18.2610000   23.9580000  
O 14.4850000   18.0360000   27.3270000  
C 14.3590000   18.1900000   26.0180000  
O 13.2680000   17.9880000   25.4580000  
O 19.9080000   18.9940000   21.3760000  
O 21.3660000   19.0490000   23.7270000  
H 17.0970000   18.5240000   27.1290000  
H 15.4060000   18.1930000   27.4090000  
H 15.4140000   18.0910000   23.1610000  
H 19.2200000   18.9890000   20.5730000  
H 21.4950000   19.6400000   22.9820000  
C 17.0730000   18.4960000   21.3290000  
C 16.9820000   19.7230000   20.5710000  
C 16.1730000   19.7440000   19.4640000  
C 15.5210000   18.5940000   18.9100000  
C 15.5740000   17.3650000   19.6460000  
C 16.3220000   17.3560000   20.8850000  
C 17.6390000   21.0050000   20.6620000  
C 17.1640000   21.7720000   19.5770000  
N 16.2630000   20.8940000   18.7920000  
O 18.3740000   23.8270000   19.8980000  
C 17.6160000   23.1320000   19.0500000  
O 17.0830000   23.6480000   18.0690000  
O 14.9900000   16.2320000   19.1870000  
O 16.2880000   16.1770000   21.6280000  
H 18.3890000   21.3740000   21.3600000  
H 18.5770000   23.2590000   20.6480000  
H 15.9500000   21.0040000   17.8450000  
H 14.9050000   16.4750000   18.2350000  
H 15.6790000   15.5360000   21.1830000  
C 14.9640000   18.5900000   17.5650000  
C 15.7970000   18.5240000   16.4140000  
C 15.1600000   18.3670000   15.1580000  
C 13.8160000   18.2550000   15.0230000  
C 12.9970000   18.3490000   16.1060000  
C 13.5620000   18.5040000   17.3750000  
C 17.2410000   18.6790000   16.1220000  
C 17.3740000   18.5620000   14.7310000  
N 16.1300000   18.3150000   14.1590000  
O 19.7350000   18.6220000   14.8070000  
C 18.6480000   18.6140000   13.9730000  
O 18.7360000   18.5420000   12.7470000  
O 11.6160000   18.2420000   16.0340000  
O 12.6720000   18.5720000   18.4530000  
H 18.0240000   18.9240000   16.8590000  
H 19.4390000   18.5490000   15.7020000  
H 15.9840000   18.1960000   13.1270000  
H 11.2500000   18.2210000   16.9490000  
H 13.1360000   19.1830000   19.0710000  
H 13.2740000   18.1720000   14.0610000  
