76
011 
C 20.2980000   15.9330000   28.1490000  
C 19.8340000   16.8150000   29.2640000  
C 19.0420000   17.8950000   28.9660000  
C 18.6330000   18.1710000   27.6430000  
C 19.1320000   17.5180000   26.5120000  
C 20.1470000   16.4180000   26.6450000  
C 18.3620000   18.8350000   29.8070000  
C 17.5420000   19.6460000   29.0000000  
N 17.7630000   19.2630000   27.6670000  
O 16.4550000   20.8990000   30.7500000  
C 16.5940000   20.7210000   29.4220000  
O 16.0130000   21.4610000   28.5920000  
O 20.7690000   15.8530000   25.7300000  
O 20.8590000   14.8830000   28.3720000  
H 20.0110000   16.3930000   30.2310000  
H 18.3290000   18.7390000   30.9270000  
H 17.1650000   20.3830000   31.0980000  
H 17.3110000   19.5150000   26.8700000  
C 18.6790000   18.0350000   25.2380000  
C 19.4810000   18.8230000   24.4420000  
C 19.1730000   19.1820000   23.1790000  
C 17.9680000   18.7140000   22.5260000  
C 17.0960000   17.9630000   23.3450000  
C 17.4330000   17.7470000   24.7180000  
C 20.8980000   19.1440000   24.5860000  
C 21.2670000   19.8380000   23.4270000  
N 20.2110000   19.7830000   22.5270000  
O 23.4990000   20.0430000   24.0670000  
C 22.6160000   20.3740000   23.1190000  
O 23.0030000   21.0770000   22.2240000  
O 15.8360000   17.5150000   22.9430000  
O 16.5510000   17.0190000   25.4520000  
H 21.5430000   18.9710000   25.4390000  
H 22.8950000   19.5130000   24.6450000  
H 20.0640000   20.2450000   21.7010000  
H 15.5490000   18.1580000   22.2470000  
H 15.8060000   16.7500000   24.8310000  
C 17.5880000   18.8080000   21.0230000  
C 17.3320000   17.6550000   20.2240000  
C 17.0860000   17.6650000   18.8750000  
C 17.1010000   18.8250000   18.1390000  
C 17.2380000   20.0280000   18.8310000  
C 17.4240000   20.0320000   20.2640000  
C 17.2670000   16.2400000   20.6190000  
C 17.0590000   15.4760000   19.4030000  
N 16.9170000   16.3820000   18.2930000  
O 16.9780000   13.4660000   20.5690000  
C 17.0520000   14.0540000   19.3250000  
O 17.1620000   13.3520000   18.3400000  
O 17.2130000   21.2330000   18.1100000  
O 17.4880000   21.1720000   20.9910000  
H 17.6880000   15.8020000   21.5440000  
H 17.1270000   14.2360000   21.1070000  
H 16.5510000   16.1430000   17.3510000  
H 16.7880000   20.9300000   17.2990000  
H 17.2950000   21.8020000   20.2960000  
C 16.8190000   18.7620000   16.6870000  
C 15.6550000   19.3890000   16.1760000  
C 15.4460000   19.4890000   14.8350000  
C 16.2170000   18.9220000   13.8430000  
C 17.3890000   18.2150000   14.2770000  
C 17.6830000   18.2150000   15.6930000  
C 14.5240000   20.0410000   16.7690000  
C 13.6920000   20.5470000   15.7790000  
N 14.2520000   20.1500000   14.5380000  
O 12.1710000   21.4900000   17.2110000  
C 12.3370000   21.1650000   15.9540000  
O 11.5010000   21.2910000   15.0920000  
O 18.2170000   17.5630000   13.4640000  
O 18.8540000   17.5810000   16.0430000  
H 14.3390000   20.0330000   17.8100000  
H 13.0640000   21.4520000   17.6510000  
H 13.9520000   20.4910000   13.6290000  
H 18.9680000   17.2520000   14.0000000  
H 18.9930000   17.5070000   17.0330000  
H 15.8700000   18.8010000   12.8300000  
