76
011 
C 17.9460000   20.8570000   29.1670000  
C 16.7560000   20.1320000   29.5720000  
C 16.0690000   19.4180000   28.6100000  
C 16.5350000   19.2850000   27.3410000  
C 17.7000000   19.7970000   26.8890000  
C 18.5150000   20.6670000   27.6910000  
C 14.8470000   18.7140000   28.6870000  
C 14.5460000   18.1290000   27.4000000  
N 15.5900000   18.5790000   26.5900000  
O 12.6470000   16.9690000   28.1100000  
C 13.4100000   17.4020000   27.0200000  
O 13.2200000   17.1560000   25.8270000  
O 19.5120000   21.2730000   27.3410000  
O 18.5130000   21.6790000   29.8060000  
H 16.4180000   20.2700000   30.5840000  
H 14.1890000   18.7270000   29.5540000  
H 12.9790000   17.4690000   28.8500000  
H 15.6110000   18.4290000   25.5600000  
C 17.9370000   19.6200000   25.5250000  
C 17.3720000   20.4340000   24.5140000  
C 17.5730000   20.1800000   23.1710000  
C 18.2860000   19.0090000   22.6490000  
C 18.8670000   18.1560000   23.6470000  
C 18.7150000   18.4900000   25.0390000  
C 16.4900000   21.5570000   24.6290000  
C 16.1700000   21.9270000   23.2490000  
N 16.8240000   21.0040000   22.3630000  
O 14.9740000   23.8790000   23.8470000  
C 15.2930000   23.0470000   22.8140000  
O 14.8140000   23.1670000   21.7250000  
O 19.6690000   17.1050000   23.3060000  
O 19.2660000   17.6580000   25.8790000  
H 16.3680000   22.2590000   25.4900000  
H 15.7400000   23.7280000   24.4330000  
H 16.8270000   21.0690000   21.3110000  
H 20.0670000   17.2960000   22.4690000  
H 19.5500000   16.7790000   25.4770000  
C 18.2660000   18.6590000   21.2230000  
C 19.3250000   18.8870000   20.3410000  
C 19.2240000   18.5000000   19.0570000  
C 18.1760000   17.7700000   18.4550000  
C 17.0300000   17.6320000   19.2750000  
C 17.1250000   18.0180000   20.6820000  
C 20.6710000   19.5050000   20.4830000  
C 21.2600000   19.3720000   19.1980000  
N 20.3200000   18.7100000   18.3710000  
O 23.4510000   20.1130000   19.8220000  
C 22.6780000   19.6520000   18.8420000  
O 23.1410000   19.2340000   17.8150000  
O 15.8660000   17.2610000   18.7570000  
O 16.0430000   17.8750000   21.5180000  
H 21.2050000   19.8280000   21.3610000  
H 22.8760000   20.3730000   20.5500000  
H 20.4600000   18.3240000   17.4960000  
H 15.9960000   17.1900000   17.7760000  
H 15.4690000   17.2090000   21.2360000  
C 18.1160000   17.4380000   16.9990000  
C 17.8600000   16.1530000   16.4940000  
C 17.8340000   15.7930000   15.1390000  
C 17.9490000   16.8000000   14.1350000  
C 18.1070000   18.1160000   14.6330000  
C 18.2880000   18.4420000   16.0250000  
C 17.5050000   14.9410000   17.1510000  
C 17.5240000   13.8890000   16.1670000  
N 17.5350000   14.4920000   14.9480000  
O 17.2290000   12.2020000   17.8070000  
C 17.5340000   12.4490000   16.5390000  
O 17.7580000   11.5900000   15.7280000  
O 18.0390000   19.1590000   13.7250000  
O 18.5100000   19.7720000   16.3790000  
H 17.4400000   14.7420000   18.1820000  
H 17.1300000   13.0820000   18.1940000  
H 17.5730000   13.9400000   14.0850000  
H 18.7720000   19.7250000   14.0290000  
H 18.8890000   19.8580000   17.2820000  
H 17.8650000   16.4390000   13.0880000  
