76
011 
C 20.6840000   14.0310000   27.2810000  
C 21.8950000   13.6510000   26.4950000  
C 22.0630000   14.1660000   25.2430000  
C 21.3430000   15.2000000   24.6700000  
C 20.2060000   15.6970000   25.2970000  
C 19.8420000   15.2310000   26.6760000  
C 22.7270000   13.5410000   24.1450000  
C 22.3280000   14.0820000   22.9210000  
N 21.4640000   15.1720000   23.3020000  
O 23.9270000   12.9470000   21.4630000  
C 22.8910000   13.8410000   21.5540000  
O 22.4240000   14.4710000   20.5780000  
O 18.8900000   15.7080000   27.3110000  
O 20.4420000   13.5140000   28.3390000  
H 22.5200000   12.8720000   26.9470000  
H 23.5420000   12.8080000   24.2910000  
H 24.1620000   12.7600000   22.4020000  
H 20.9170000   15.7630000   22.6900000  
C 19.2690000   16.4760000   24.4810000  
C 18.1870000   15.8840000   23.8110000  
C 17.4040000   16.7080000   23.0020000  
C 17.6750000   18.0400000   22.6070000  
C 18.8000000   18.5790000   23.1870000  
C 19.5040000   17.8440000   24.1300000  
C 17.6720000   14.5270000   23.7280000  
C 16.5340000   14.6110000   22.9290000  
N 16.4250000   15.9350000   22.5250000  
O 15.8230000   12.3680000   23.1330000  
C 15.5500000   13.5670000   22.6070000  
O 14.6030000   13.8640000   21.9590000  
O 19.1840000   19.8460000   22.8320000  
O 20.6020000   18.4330000   24.7420000  
H 18.1450000   13.6390000   24.1210000  
H 16.7220000   12.5030000   23.4600000  
H 15.7490000   16.2420000   21.8390000  
H 18.3740000   20.2500000   22.4190000  
H 20.8900000   19.1790000   24.1410000  
C 17.0100000   18.7270000   21.4650000  
C 16.3740000   19.8960000   21.7320000  
C 15.6980000   20.5770000   20.7250000  
C 15.6870000   20.2250000   19.3130000  
C 16.4120000   18.9950000   19.0810000  
C 17.0600000   18.2920000   20.1460000  
C 16.1490000   20.5670000   22.9750000  
C 15.3990000   21.6870000   22.7060000  
N 15.0480000   21.6700000   21.3720000  
O 15.6090000   22.4550000   24.9600000  
C 15.0360000   22.6670000   23.7490000  
O 14.2840000   23.5990000   23.5470000  
O 16.3650000   18.5540000   17.7970000  
O 17.6670000   17.1170000   19.7780000  
H 16.4980000   20.2420000   23.9220000  
H 15.9920000   21.5430000   24.9590000  
H 14.6780000   22.4870000   20.8210000  
H 16.0210000   19.3040000   17.2090000  
H 17.7450000   17.1460000   18.8290000  
C 15.1690000   21.2220000   18.2980000  
C 15.7930000   22.4740000   18.1150000  
C 15.3600000   23.3080000   17.1620000  
C 14.2370000   23.0360000   16.3150000  
C 13.6820000   21.7740000   16.4210000  
C 14.0670000   20.8980000   17.5140000  
C 16.8770000   23.1360000   18.8010000  
C 16.9790000   24.4310000   18.2430000  
N 16.0250000   24.5060000   17.1860000  
O 18.5880000   25.2490000   19.7150000  
C 17.8850000   25.5100000   18.6310000  
O 17.8000000   26.6460000   18.1100000  
O 12.6260000   21.5540000   15.5880000  
O 13.3850000   19.7480000   17.6090000  
H 17.3830000   22.8530000   19.6470000  
H 18.2800000   24.2770000   19.8720000  
H 15.9370000   25.1910000   16.5100000  
H 12.1330000   20.7540000   15.8350000  
H 13.7630000   19.2920000   18.3430000  
H 13.8560000   23.8060000   15.6870000  
