76
011 
C 21.2440000   11.6860000   23.0230000  
C 20.5720000   11.4270000   24.3290000  
C 19.6690000   12.3650000   24.8260000  
C 19.4320000   13.6130000   24.2870000  
C 19.8480000   13.9420000   23.0300000  
C 20.6870000   13.0280000   22.2470000  
C 19.1820000   12.4410000   26.1560000  
C 18.4190000   13.6440000   26.3040000  
N 18.5620000   14.2850000   25.0770000  
O 17.9340000   13.5500000   28.6110000  
C 17.6390000   14.1920000   27.4690000  
O 16.9650000   15.1700000   27.4800000  
O 21.0970000   13.2550000   21.1190000  
O 22.2280000   11.0410000   22.6410000  
H 20.9180000   10.5610000   24.8510000  
H 19.2780000   11.6210000   26.8660000  
H 18.4590000   12.8330000   28.3170000  
H 18.1440000   15.2290000   24.8890000  
C 19.2820000   15.1870000   22.5080000  
C 19.9460000   16.3750000   22.8500000  
C 19.3980000   17.5440000   22.4120000  
C 18.0620000   17.6750000   21.9840000  
C 17.4710000   16.5140000   21.5170000  
C 18.0730000   15.2610000   21.7600000  
C 21.0550000   16.7250000   23.6050000  
C 21.1460000   18.1390000   23.5740000  
N 20.0620000   18.6420000   22.8410000  
O 22.9950000   18.0400000   24.9470000  
C 22.2280000   18.8800000   24.2010000  
O 22.4190000   20.0600000   24.1080000  
O 16.2650000   16.5290000   20.8420000  
O 17.4420000   14.1620000   21.3260000  
H 21.7060000   16.0780000   24.1590000  
H 22.7010000   17.1710000   24.5700000  
H 19.9690000   19.6000000   22.7160000  
H 15.8040000   17.4140000   20.7270000  
H 16.6130000   14.5080000   21.0330000  
C 17.4200000   18.9360000   21.6940000  
C 17.3100000   19.3670000   20.3120000  
C 16.7970000   20.5670000   20.0150000  
C 16.3180000   21.4700000   20.9240000  
C 16.4640000   21.0650000   22.2980000  
C 17.0240000   19.8540000   22.6800000  
C 17.6390000   18.7990000   19.0180000  
C 17.5270000   19.7940000   18.0840000  
N 16.8250000   20.8550000   18.6570000  
O 18.5240000   18.6070000   16.2350000  
C 17.8360000   19.7390000   16.6230000  
O 17.6060000   20.6350000   15.8230000  
O 16.1140000   21.9090000   23.3110000  
O 17.1830000   19.5410000   24.0590000  
H 18.0170000   17.7630000   18.8460000  
H 18.5660000   17.9830000   16.9640000  
H 16.4420000   21.6400000   18.1480000  
H 16.2530000   22.8900000   23.0220000  
H 16.6890000   20.2230000   24.4960000  
C 15.8990000   22.8110000   20.4470000  
C 14.6720000   23.0510000   19.6990000  
C 14.3030000   24.3120000   19.2420000  
C 15.1170000   25.4250000   19.5270000  
C 16.3040000   25.2130000   20.2890000  
C 16.7320000   23.9100000   20.7160000  
C 13.6260000   22.1860000   19.1690000  
C 12.6890000   22.9750000   18.5510000  
N 13.1060000   24.3130000   18.5850000  
O 11.2540000   21.1290000   18.0620000  
C 11.4300000   22.4800000   17.9640000  
O 10.6450000   23.2420000   17.4570000  
O 17.0700000   26.3280000   20.5540000  
O 17.8500000   23.7230000   21.5000000  
H 13.6690000   21.1430000   19.3140000  
H 11.8650000   20.8280000   18.7780000  
H 12.7300000   25.1280000   18.1340000  
H 17.8580000   25.9320000   20.8740000  
H 18.4070000   23.0320000   21.1350000  
H 14.8100000   26.4410000   19.2500000  
