76
011 
C 12.4850000   13.6080000   18.8370000  
C 11.6990000   13.3720000   20.0640000  
C 12.1200000   13.8430000   21.2920000  
C 13.1050000   14.7680000   21.3520000  
C 13.9400000   15.1850000   20.3310000  
C 13.7700000   14.5130000   19.0310000  
C 11.6450000   13.6250000   22.6280000  
C 12.3430000   14.4940000   23.4620000  
N 13.2560000   15.1450000   22.6140000  
O 11.2200000   13.8000000   25.5030000  
C 12.1750000   14.6150000   24.9170000  
O 12.9050000   15.3750000   25.5570000  
O 14.5400000   14.7610000   18.1790000  
O 12.1880000   13.1720000   17.7500000  
H 10.8650000   12.6740000   20.0540000  
H 10.7280000   13.0140000   22.8480000  
H 10.7690000   13.2920000   24.8240000  
H 13.8510000   15.8850000   22.9310000  
C 15.0420000   16.0890000   20.6330000  
C 16.3610000   15.6300000   20.9030000  
C 17.3710000   16.4730000   21.1840000  
C 17.2820000   17.8430000   21.2210000  
C 15.9880000   18.2910000   20.9370000  
C 14.8390000   17.4500000   20.7440000  
C 16.8580000   14.2390000   21.0340000  
C 18.1940000   14.4150000   21.4650000  
N 18.5030000   15.7660000   21.4610000  
O 18.9270000   12.1390000   21.3780000  
C 19.2750000   13.4120000   21.5560000  
O 20.3960000   13.6890000   21.7870000  
O 15.8030000   19.6680000   20.8800000  
O 13.5800000   17.9550000   20.5740000  
H 16.3680000   13.3600000   20.6900000  
H 18.0260000   12.1830000   21.0710000  
H 19.3740000   16.1940000   21.7030000  
H 16.6540000   20.0320000   21.0620000  
H 13.7450000   18.9070000   20.3290000  
C 18.4580000   18.7260000   21.5270000  
C 19.0120000   19.5440000   20.5120000  
C 19.9590000   20.4610000   20.8510000  
C 20.4290000   20.7730000   22.1460000  
C 19.9550000   19.9170000   23.1800000  
C 18.9800000   18.9250000   22.8790000  
C 18.7980000   19.7100000   19.0740000  
C 19.4610000   20.8780000   18.6780000  
N 20.2490000   21.2930000   19.7960000  
O 18.7400000   21.1760000   16.4230000  
C 19.4760000   21.6620000   17.4180000  
O 20.1200000   22.6550000   17.1490000  
O 20.4300000   20.1040000   24.4630000  
O 18.5210000   18.2150000   23.9640000  
H 18.1290000   19.1360000   18.3760000  
H 18.3070000   20.4360000   16.8740000  
H 20.9850000   21.9830000   19.7600000  
H 21.3530000   20.3860000   24.3980000  
H 18.8640000   18.6630000   24.7490000  
C 21.4400000   21.8590000   22.4540000  
C 21.1190000   22.9590000   23.3220000  
C 22.1040000   23.8690000   23.6840000  
C 23.4030000   23.8090000   23.1060000  
C 23.7420000   22.6250000   22.3620000  
C 22.7970000   21.6490000   21.9690000  
C 19.8680000   23.3530000   23.8840000  
C 20.1180000   24.4710000   24.6340000  
N 21.4990000   24.8170000   24.5640000  
O 17.8920000   24.8390000   25.4020000  
C 19.1320000   25.2600000   25.4620000  
O 19.4050000   26.2700000   26.0700000  
O 25.0370000   22.4500000   22.0550000  
O 23.2460000   20.4970000   21.3680000  
H 18.8750000   22.8100000   23.8560000  
H 17.9000000   23.9560000   25.0070000  
H 21.9160000   25.7540000   24.7810000  
H 25.0910000   21.5260000   21.7190000  
H 22.3720000   20.0790000   21.1770000  
H 24.1500000   24.5820000   23.3280000  
