76
011 
C 17.5120000   19.0080000   29.3580000  
C 18.9140000   19.3260000   29.5530000  
C 19.8320000   19.4000000   28.5070000  
C 19.4300000   19.3870000   27.2260000  
C 18.1910000   19.0130000   26.8380000  
C 17.0680000   18.8540000   27.8060000  
C 21.2410000   19.6500000   28.6310000  
C 21.7050000   19.7270000   27.3070000  
N 20.5750000   19.5170000   26.5120000  
O 23.9790000   20.1810000   27.7890000  
C 23.0770000   19.8640000   26.8450000  
O 23.3400000   19.7780000   25.6560000  
O 16.0300000   18.3590000   27.4270000  
O 16.6720000   18.8690000   30.2800000  
H 19.2670000   19.3920000   30.6060000  
H 21.8760000   19.7010000   29.4900000  
H 23.5090000   20.5690000   28.5610000  
H 20.6490000   19.4400000   25.5360000  
C 18.0360000   18.7860000   25.4300000  
C 18.0400000   17.4700000   24.8370000  
C 17.6980000   17.2710000   23.5160000  
C 17.4510000   18.2860000   22.5560000  
C 17.5120000   19.6210000   23.1040000  
C 17.8430000   19.8500000   24.4910000  
C 18.0720000   16.1370000   25.4500000  
C 17.7940000   15.2120000   24.3920000  
N 17.4760000   15.9620000   23.2400000  
O 18.0730000   13.2420000   25.7430000  
C 17.8460000   13.7570000   24.5430000  
O 17.5390000   12.9400000   23.6540000  
O 17.4140000   20.7310000   22.2350000  
O 17.7920000   21.1630000   24.9190000  
H 18.5630000   15.8030000   26.3660000  
H 17.9070000   14.0960000   26.2580000  
H 17.1010000   15.6430000   22.3980000  
H 17.0790000   20.2430000   21.4930000  
H 17.6650000   21.6420000   24.0710000  
C 17.1340000   17.9880000   21.0940000  
C 15.9760000   18.4190000   20.3960000  
C 15.9310000   18.4780000   19.0190000  
C 16.8720000   17.7850000   18.2370000  
C 18.0170000   17.2430000   18.9030000  
C 18.1550000   17.3550000   20.3230000  
C 14.8300000   19.1550000   20.8730000  
C 14.2540000   19.6510000   19.7390000  
N 14.8230000   19.1860000   18.5640000  
O 12.3910000   20.5400000   21.0200000  
C 12.9680000   20.4660000   19.7760000  
O 12.4160000   20.9710000   18.8300000  
O 19.0450000   16.8970000   18.0930000  
O 19.2840000   16.7270000   20.8900000  
H 14.5870000   19.4460000   21.8650000  
H 12.8770000   19.8890000   21.4550000  
H 14.5520000   19.3110000   17.5930000  
H 18.7480000   17.2610000   17.2370000  
H 19.9620000   16.5830000   20.2020000  
C 16.6990000   17.7510000   16.8140000  
C 17.2400000   18.7610000   16.0160000  
C 16.8990000   18.8940000   14.7220000  
C 16.0050000   17.9870000   14.0540000  
C 15.3290000   17.0510000   14.8530000  
C 15.6650000   16.9060000   16.2100000  
C 18.2450000   19.7850000   16.3200000  
C 18.5480000   20.3650000   15.0990000  
N 17.6540000   19.8920000   14.1400000  
O 20.2890000   21.7320000   16.0280000  
C 19.5810000   21.3880000   14.9430000  
O 19.8260000   21.9590000   13.8960000  
O 14.4060000   16.2720000   14.2790000  
O 15.0650000   16.0570000   17.0500000  
H 18.7750000   20.0050000   17.2720000  
H 19.8620000   21.2020000   16.7220000  
H 17.6970000   20.1260000   13.1450000  
H 14.0400000   15.5240000   14.8540000  
H 15.4680000   16.1560000   17.9630000  
H 15.7470000   18.1000000   13.0480000  
