76
011 
C 18.1860000   10.7590000   22.3000000  
C 18.6660000   10.6700000   23.6770000  
C 18.9150000   11.7960000   24.3650000  
C 18.5730000   13.1030000   23.8610000  
C 18.0650000   13.3680000   22.6140000  
C 17.9450000   12.1950000   21.6710000  
C 19.4400000   12.0200000   25.6840000  
C 19.4350000   13.3610000   25.9980000  
N 18.7960000   14.0010000   24.8520000  
O 20.7310000   13.0970000   27.9930000  
C 20.1030000   13.9740000   27.1610000  
O 20.1390000   15.1470000   27.3770000  
O 17.4910000   12.3480000   20.5460000  
O 18.1920000    9.7230000   21.5940000  
H 18.9170000    9.6680000   24.0570000  
H 19.9390000   11.1970000   26.2600000  
H 20.4410000   12.2280000   27.7610000  
H 18.5010000   15.0070000   24.8410000  
C 17.8880000   14.7740000   22.2010000  
C 18.9730000   15.5110000   21.7430000  
C 18.7850000   16.8480000   21.4500000  
C 17.6190000   17.5900000   21.6410000  
C 16.5450000   16.8340000   22.0670000  
C 16.6570000   15.3940000   22.2480000  
C 20.3580000   15.2620000   21.6380000  
C 20.9730000   16.4050000   21.2090000  
N 19.9850000   17.4530000   21.1140000  
O 23.1090000   15.4540000   21.1130000  
C 22.3760000   16.5550000   20.8940000  
O 22.8300000   17.5810000   20.4690000  
O 15.4160000   17.4990000   22.3460000  
O 15.5540000   14.6660000   22.6050000  
H 20.8250000   14.3390000   21.5960000  
H 22.5680000   14.8070000   21.5640000  
H 20.2060000   18.3850000   20.8740000  
H 15.6470000   18.3900000   22.0820000  
H 14.8060000   15.2590000   22.8000000  
C 17.6330000   19.0710000   21.4600000  
C 16.9920000   19.6340000   20.3260000  
C 16.9200000   20.9880000   20.1330000  
C 17.3980000   21.9530000   21.0560000  
C 18.1350000   21.3790000   22.2110000  
C 18.2980000   19.9690000   22.3950000  
C 16.2620000   19.0420000   19.2380000  
C 15.7520000   20.0840000   18.4700000  
N 16.2230000   21.3100000   18.9980000  
O 14.9220000   18.5700000   16.7430000  
C 14.9670000   19.8560000   17.2170000  
O 14.4380000   20.7650000   16.6890000  
O 18.8140000   22.1060000   23.1020000  
O 18.9760000   19.4560000   23.4640000  
H 16.0730000   17.9810000   19.1290000  
H 15.5670000   18.0420000   17.3050000  
H 16.2130000   22.2400000   18.5360000  
H 18.2600000   22.9220000   23.1850000  
H 19.4100000   20.1430000   23.9250000  
C 17.2660000   23.4540000   20.7710000  
C 16.0670000   24.1830000   20.8640000  
C 16.0410000   25.5600000   20.8310000  
C 17.2760000   26.2820000   20.7550000  
C 18.4720000   25.5620000   20.5930000  
C 18.4700000   24.1710000   20.5640000  
C 14.7250000   23.6820000   20.9490000  
C 13.9110000   24.8480000   21.0630000  
N 14.7280000   25.9870000   21.0180000  
O 11.8170000   23.8100000   21.5230000  
C 12.4780000   24.9450000   21.3390000  
O 11.8560000   26.0080000   21.3760000  
O 19.6050000   26.1770000   20.4900000  
O 19.6690000   23.5230000   20.3190000  
H 14.4560000   22.6170000   20.9920000  
H 12.4470000   23.1370000   21.2610000  
H 14.3670000   26.8450000   20.8860000  
H 20.3120000   25.5610000   20.6540000  
H 19.4120000   22.5910000   20.3270000  
H 17.3060000   27.3680000   20.7940000  
