76
011 
C 11.3920000   14.9440000   19.0710000  
C 10.9850000   14.1340000   20.2030000  
C 11.8100000   14.2050000   21.2840000  
C 12.8530000   15.1510000   21.5010000  
C 13.2830000   16.0310000   20.5770000  
C 12.5120000   16.0680000   19.2810000  
C 11.7840000   13.4800000   22.5740000  
C 12.8190000   13.8650000   23.4160000  
N 13.4740000   14.8990000   22.7210000  
O 12.2260000   12.7410000   25.3520000  
C 13.1770000   13.5050000   24.7870000  
O 14.2530000   13.8340000   25.3280000  
O 12.7910000   16.8950000   18.4520000  
O 10.9300000   14.7620000   17.9770000  
H 10.1230000   13.4320000   20.0690000  
H 11.0660000   12.6700000   22.8050000  
H 11.4690000   12.8590000   24.7680000  
H 14.3920000   15.2410000   23.0120000  
C 14.4490000   16.7830000   20.8770000  
C 15.7150000   16.1330000   20.7640000  
C 16.7980000   16.8210000   21.1310000  
C 16.8380000   18.1520000   21.5450000  
C 15.5960000   18.8150000   21.6550000  
C 14.4160000   18.1540000   21.1870000  
C 16.0690000   14.7210000   20.5320000  
C 17.4730000   14.7840000   20.5720000  
N 17.8800000   16.0520000   21.0610000  
O 17.8480000   12.4130000   20.0930000  
C 18.3950000   13.6490000   20.3300000  
O 19.6310000   13.6110000   20.4350000  
O 15.4670000   20.0370000   22.0890000  
O 13.1930000   18.7590000   21.3550000  
H 15.4670000   13.8380000   20.3540000  
H 16.9140000   12.5360000   20.0190000  
H 18.8720000   16.3760000   21.2900000  
H 16.3080000   20.5880000   22.0370000  
H 13.1820000   19.7010000   21.6770000  
C 18.1670000   18.8600000   21.8640000  
C 18.6350000   19.8410000   20.9800000  
C 19.8340000   20.4400000   21.1730000  
C 20.7200000   20.2020000   22.2450000  
C 20.3120000   19.1710000   23.1020000  
C 19.0500000   18.5190000   22.9490000  
C 18.0880000   20.5380000   19.8230000  
C 19.0030000   21.5160000   19.4520000  
N 20.1460000   21.3790000   20.2100000  
O 17.5530000   22.6060000   17.8690000  
C 18.7960000   22.5740000   18.4310000  
O 19.5820000   23.3790000   18.0180000  
O 21.1020000   18.9000000   24.2000000  
O 18.6370000   17.6080000   23.9190000  
H 17.1480000   20.2580000   19.3200000  
H 17.1130000   21.8540000   18.2880000  
H 20.8370000   22.0880000   20.2160000  
H 21.8540000   19.5600000   24.3340000  
H 19.2940000   17.5780000   24.6530000  
C 21.9720000   20.9760000   22.3490000  
C 22.0480000   22.1870000   23.0710000  
C 23.1710000   22.9500000   23.1490000  
C 24.3620000   22.5650000   22.4850000  
C 24.3500000   21.3520000   21.7660000  
C 23.1440000   20.5340000   21.6920000  
C 21.0280000   22.8510000   23.8170000  
C 21.5940000   24.0260000   24.4080000  
N 22.9320000   24.0410000   24.0320000  
O 19.6450000   24.7570000   25.3680000  
C 20.9380000   25.0490000   25.2740000  
O 21.4740000   26.0070000   25.7770000  
O 25.4760000   20.8970000   21.1320000  
O 23.0950000   19.3730000   21.0070000  
H 19.9810000   22.6240000   23.7190000  
H 19.6240000   23.9770000   24.8760000  
H 23.6300000   24.7300000   24.2160000  
H 25.4150000   19.9670000   20.9740000  
H 22.1470000   19.1340000   21.0880000  
H 25.3260000   23.1470000   22.6460000  
