76
011 
C 20.5360000   11.5050000   21.8900000  
C 19.4830000   10.6140000   21.3730000  
C 18.2410000   11.2000000   21.0490000  
C 17.9050000   12.4770000   21.2570000  
C 18.7530000   13.4050000   21.8040000  
C 20.1410000   13.0000000   22.1970000  
C 17.0040000   10.5240000   20.6430000  
C 15.9230000   11.4230000   20.5830000  
N 16.5480000   12.6470000   20.8980000  
O 14.3830000    9.6470000   20.1340000  
C 14.5650000   11.0510000   20.2200000  
O 13.7540000   11.9130000   19.8420000  
O 20.8820000   13.7990000   22.7280000  
O 21.6720000   11.1060000   22.0510000  
H 19.6450000    9.5680000   21.3080000  
H 16.9960000    9.4690000   20.5340000  
H 15.1880000    9.2820000   20.5160000  
H 16.0070000   13.5700000   20.8730000  
C 18.3540000   14.8310000   21.8140000  
C 17.9640000   15.5920000   22.9420000  
C 17.6810000   16.9320000   22.9250000  
C 17.5400000   17.6780000   21.7780000  
C 17.9150000   16.9740000   20.5780000  
C 18.3150000   15.6120000   20.6320000  
C 17.8690000   15.2340000   24.3820000  
C 17.4540000   16.3940000   25.0450000  
N 17.3580000   17.4480000   24.1220000  
O 17.3020000   15.4490000   27.2590000  
C 17.2010000   16.5590000   26.5100000  
O 16.9140000   17.6540000   26.9770000  
O 17.5690000   17.5300000   19.3510000  
O 18.3860000   14.9720000   19.4380000  
H 18.1310000   14.2870000   24.8590000  
H 17.2250000   14.6780000   26.6810000  
H 17.0190000   18.3880000   24.3020000  
H 17.2880000   18.4750000   19.4590000  
H 18.1170000   15.6180000   18.7220000  
C 17.1780000   19.1860000   21.8200000  
C 18.2130000   20.1760000   21.7710000  
C 17.9020000   21.5040000   21.8370000  
C 16.5560000   22.0010000   21.8320000  
C 15.5290000   20.9620000   22.0180000  
C 15.8400000   19.6000000   22.0600000  
C 19.6790000   20.1520000   21.7340000  
C 20.2240000   21.4330000   21.8030000  
N 19.0210000   22.2830000   21.6650000  
O 22.6010000   20.9600000   21.9000000  
C 21.6450000   21.9070000   21.8650000  
O 21.8900000   23.1040000   21.9390000  
O 14.2010000   21.2910000   22.0720000  
O 14.7990000   18.7490000   22.2760000  
H 20.2610000   19.2310000   21.8650000  
H 22.0950000   20.1220000   22.0870000  
H 19.1100000   23.2510000   21.4490000  
H 14.1870000   22.2790000   21.9320000  
H 14.0060000   19.2610000   22.0780000  
C 16.3440000   23.4860000   21.7960000  
C 16.9800000   24.2830000   20.8060000  
C 16.7720000   25.6330000   20.7760000  
C 16.1070000   26.2740000   21.7750000  
C 15.6060000   25.5230000   22.9250000  
C 15.7520000   24.1250000   22.9280000  
C 17.6990000   23.9100000   19.6220000  
C 18.0650000   25.0930000   19.0160000  
N 17.4820000   26.1820000   19.6710000  
O 18.9050000   23.9810000   17.1460000  
C 18.6460000   25.2330000   17.6900000  
O 19.0240000   26.2970000   17.2280000  
O 15.0810000   26.1340000   24.0840000  
O 15.4370000   23.3690000   24.0460000  
H 17.9140000   22.9450000   19.2700000  
H 18.7560000   23.3160000   17.9060000  
H 17.4720000   27.1480000   19.2930000  
H 14.9850000   25.4460000   24.8140000  
H 15.8300000   22.4870000   24.0110000  
H 15.9180000   27.3870000   21.7090000  
