76
011 
C 10.5200000   16.1810000   21.8960000  
C  9.8630000   16.9940000   22.9010000  
C 10.5190000   17.9570000   23.5020000  
C 11.8300000   18.2920000   23.2230000  
C 12.6560000   17.5590000   22.4070000  
C 12.0130000   16.4480000   21.6070000  
C 10.0560000   18.8990000   24.5080000  
C 11.0610000   19.8630000   24.7000000  
N 12.1800000   19.4120000   23.9560000  
O  9.8220000   21.0300000   26.3020000  
C 10.9360000   21.0720000   25.5210000  
O 11.7640000   21.9790000   25.6000000  
O 12.6770000   15.8150000   20.7300000  
O  9.8910000   15.2160000   21.3800000  
H  8.8850000   16.6060000   23.0770000  
H  8.9950000   18.8220000   24.8650000  
H  9.3160000   20.2260000   25.9160000  
H 13.0390000   19.8610000   23.9240000  
C 14.0770000   18.0260000   22.1970000  
C 15.0780000   17.1160000   22.5940000  
C 16.3700000   17.4820000   22.5470000  
C 16.8510000   18.6160000   21.9580000  
C 15.8190000   19.4900000   21.4050000  
C 14.4470000   19.2260000   21.5370000  
C 15.0200000   15.8340000   23.2270000  
C 16.3340000   15.4420000   23.5070000  
N 17.1310000   16.5270000   23.0750000  
O 15.9280000   13.2980000   24.6290000  
C 16.8520000   14.2490000   24.2020000  
O 18.0130000   14.0480000   24.4610000  
O 16.1340000   20.6600000   20.8600000  
O 13.4890000   20.0450000   20.9920000  
H 14.1430000   15.2840000   23.5630000  
H 15.1010000   13.8320000   24.6070000  
H 18.1370000   16.6400000   23.2800000  
H 17.0380000   20.7300000   20.9660000  
H 13.9660000   20.8950000   20.6740000  
C 18.3130000   18.8920000   21.8150000  
C 19.2430000   18.0730000   21.1090000  
C 20.5640000   18.4770000   21.0280000  
C 21.1070000   19.6420000   21.6090000  
C 20.1680000   20.5620000   22.0930000  
C 18.8020000   20.1520000   22.2100000  
C 19.1710000   16.8410000   20.4010000  
C 20.3620000   16.5810000   19.8370000  
N 21.2570000   17.5380000   20.2470000  
O 19.6490000   14.5930000   18.6890000  
C 20.7150000   15.4430000   18.9390000  
O 21.8610000   15.3180000   18.5020000  
O 20.5010000   21.8900000   22.3960000  
O 17.9910000   21.0680000   22.7520000  
H 18.2830000   16.2580000   20.1030000  
H 19.0380000   14.8320000   19.3860000  
H 22.1790000   17.6500000   19.8500000  
H 21.4530000   21.8290000   22.3930000  
H 18.5390000   21.7660000   23.0960000  
C 22.5700000   19.9800000   21.5540000  
C 23.0620000   20.1120000   20.2250000  
C 24.3820000   20.4780000   20.0640000  
C 25.2020000   20.8340000   21.1870000  
C 24.7340000   20.5140000   22.5000000  
C 23.3920000   20.1400000   22.6770000  
C 22.5220000   19.8850000   18.9330000  
C 23.5390000   20.3000000   18.0580000  
N 24.6870000   20.6300000   18.7370000  
O 22.0170000   20.1060000   16.1070000  
C 23.2890000   20.4150000   16.5510000  
O 24.1460000   20.8010000   15.7340000  
O 25.5680000   20.6260000   23.5130000  
O 22.8350000   19.9120000   23.9180000  
H 21.5400000   19.5880000   18.5460000  
H 21.6680000   19.6130000   16.8870000  
H 25.5910000   20.8420000   18.3680000  
H 24.9440000   20.3840000   24.2390000  
H 22.0160000   19.5670000   23.7120000  
H 26.2670000   21.1560000   21.0550000  
