76
011 
C 20.3210000   11.2980000   22.9290000  
C 19.8190000   11.1790000   24.3080000  
C 18.9690000   12.0920000   24.8680000  
C 18.5730000   13.1590000   24.1180000  
C 19.1110000   13.6060000   22.9360000  
C 20.1020000   12.7070000   22.1240000  
C 18.4900000   12.3480000   26.1680000  
C 17.6770000   13.4940000   26.1850000  
N 17.8700000   14.0150000   24.9260000  
O 16.9780000   13.3090000   28.4600000  
C 16.8910000   14.1280000   27.3070000  
O 16.3870000   15.2060000   27.2420000  
O 20.5870000   12.8760000   21.0270000  
O 20.9120000   10.3870000   22.4480000  
H 19.9740000   10.2560000   24.8690000  
H 18.5400000   11.6440000   26.9990000  
H 17.3770000   12.4500000   28.1420000  
H 17.6030000   14.9350000   24.6380000  
C 18.6940000   14.9420000   22.5010000  
C 19.3450000   16.0970000   22.9710000  
C 18.7570000   17.2940000   22.6760000  
C 17.5720000   17.5540000   21.8930000  
C 16.8870000   16.3480000   21.5350000  
C 17.4640000   15.0820000   21.7970000  
C 20.5120000   16.3130000   23.7960000  
C 20.5320000   17.7100000   23.9880000  
N 19.4260000   18.2930000   23.2590000  
O 22.3660000   17.7300000   25.4820000  
C 21.4510000   18.4290000   24.8790000  
O 21.3880000   19.6730000   24.9750000  
O 15.7090000   16.4650000   20.8720000  
O 16.7340000   14.0070000   21.5040000  
H 21.0900000   15.6020000   24.3140000  
H 22.2190000   16.7750000   25.1560000  
H 19.1540000   19.3350000   23.1910000  
H 15.5530000   17.4890000   20.8370000  
H 15.9060000   14.3650000   21.1210000  
C 17.0570000   18.9340000   21.5110000  
C 17.9890000   19.8040000   20.8520000  
C 17.6920000   21.0940000   20.6100000  
C 16.5090000   21.7530000   20.8490000  
C 15.5460000   20.9160000   21.5470000  
C 15.8630000   19.5470000   21.9610000  
C 19.3150000   19.6210000   20.2640000  
C 19.5970000   20.8310000   19.6090000  
N 18.5960000   21.7080000   19.8130000  
O 21.5050000   19.9830000   18.5430000  
C 20.7070000   21.0870000   18.7540000  
O 20.7900000   22.0950000   18.0970000  
O 14.2900000   21.4200000   21.8190000  
O 15.0100000   18.8820000   22.7910000  
H 19.8780000   18.7150000   20.2720000  
H 21.1830000   19.3190000   19.1010000  
H 18.5910000   22.6080000   19.3770000  
H 14.2040000   22.3310000   21.4480000  
H 14.4020000   19.5490000   23.2410000  
C 16.2040000   23.0830000   20.2570000  
C 15.4140000   23.1920000   19.0800000  
C 14.8770000   24.3810000   18.7060000  
C 15.0560000   25.5460000   19.4250000  
C 15.7540000   25.4460000   20.6480000  
C 16.3360000   24.2190000   21.0650000  
C 15.0910000   22.2000000   18.0240000  
C 14.3690000   22.8990000   17.0710000  
N 14.2470000   24.2140000   17.4940000  
O 13.7500000   20.9390000   15.8700000  
C 13.6970000   22.3070000   15.9310000  
O 13.1910000   22.9510000   15.0730000  
O 15.9150000   26.6450000   21.3710000  
O 16.9750000   24.1780000   22.2790000  
H 15.3620000   21.0970000   18.0090000  
H 13.8790000   20.6350000   16.7810000  
H 13.5280000   24.8480000   17.0610000  
H 16.2770000   26.4530000   22.2200000  
H 17.4620000   23.4030000   22.3860000  
H 14.8180000   26.4980000   19.0150000  
