76
011 
C 17.8600000   11.3520000   19.5670000  
C 16.7020000   10.6990000   20.1220000  
C 15.6940000   11.4570000   20.7270000  
C 15.8010000   12.8220000   20.8820000  
C 16.9460000   13.5090000   20.6240000  
C 18.0510000   12.8750000   19.8610000  
C 14.4620000   11.0490000   21.3020000  
C 13.8560000   12.1740000   21.8630000  
N 14.6120000   13.2500000   21.4530000  
O 12.1300000   10.9360000   22.6840000  
C 12.5620000   12.1650000   22.5350000  
O 11.9770000   13.1510000   22.9370000  
O 19.0520000   13.4660000   19.5310000  
O 18.6490000   10.7460000   18.8060000  
H 16.6540000    9.6530000   19.9470000  
H 14.2350000   10.0270000   21.3460000  
H 12.9950000   10.5560000   22.6990000  
H 14.3200000   14.2310000   21.6450000  
C 16.9930000   14.9220000   20.9550000  
C 17.4420000   15.3500000   22.2200000  
C 17.6070000   16.7200000   22.4380000  
C 17.4510000   17.7370000   21.5210000  
C 16.8900000   17.3000000   20.3030000  
C 16.6160000   15.9140000   20.0030000  
C 18.0340000   14.7050000   23.3370000  
C 18.5840000   15.6820000   24.1540000  
N 18.3790000   16.9020000   23.5460000  
O 19.1100000   14.2770000   25.9010000  
C 19.0400000   15.5280000   25.5060000  
O 19.3860000   16.5500000   26.1030000  
O 16.8110000   18.2960000   19.3240000  
O 16.1000000   15.5830000   18.8300000  
H 17.9390000   13.6280000   23.5930000  
H 18.6420000   13.8270000   25.1440000  
H 18.7830000   17.7710000   23.9380000  
H 17.3060000   19.0430000   19.6480000  
H 16.2220000   16.3850000   18.3310000  
C 17.7400000   19.2070000   21.7460000  
C 19.0550000   19.7820000   21.6680000  
C 19.2310000   21.1270000   21.8880000  
C 18.2140000   22.0930000   22.2010000  
C 16.9160000   21.5170000   22.3140000  
C 16.6870000   20.0800000   22.0350000  
C 20.4090000   19.3180000   21.4640000  
C 21.2820000   20.3310000   21.7610000  
N 20.5680000   21.4570000   22.0080000  
O 23.1320000   18.9460000   21.5620000  
C 22.7790000   20.2030000   21.7180000  
O 23.5670000   21.1430000   21.7480000  
O 15.8410000   22.3070000   22.6910000  
O 15.4000000   19.6670000   22.1520000  
H 20.7170000   18.3110000   21.1940000  
H 22.3400000   18.4160000   21.4320000  
H 20.9230000   22.3530000   22.3580000  
H 16.1520000   23.1480000   23.0510000  
H 14.8730000   20.4740000   22.3530000  
C 18.5430000   23.5220000   22.4210000  
C 18.1290000   24.4780000   21.5150000  
C 18.1990000   25.8090000   21.8450000  
C 19.0250000   26.2860000   22.8630000  
C 19.5310000   25.3270000   23.7900000  
C 19.2890000   23.9500000   23.6030000  
C 17.2670000   24.3910000   20.3880000  
C 17.0420000   25.7010000   19.9680000  
N 17.5620000   26.5840000   20.9150000  
O 15.7300000   25.1450000   17.9850000  
C 16.1740000   26.1690000   18.8120000  
O 15.8740000   27.2880000   18.5670000  
O 20.3030000   25.7780000   24.8280000  
O 19.8690000   23.0750000   24.4690000  
H 16.9930000   23.4220000   19.9380000  
H 15.9320000   24.3430000   18.4780000  
H 17.5470000   27.6110000   20.7550000  
H 20.4940000   25.0740000   25.4820000  
H 19.5320000   22.1440000   24.2550000  
H 19.1590000   27.3200000   23.0310000  
