76
011 
C 19.5530000   20.8260000   28.8140000  
C 20.3370000   19.6830000   29.3200000  
C 20.6000000   18.6130000   28.4890000  
C 20.1430000   18.5540000   27.1890000  
C 19.3440000   19.4940000   26.5800000  
C 18.9400000   20.6830000   27.3580000  
C 21.3810000   17.4510000   28.7130000  
C 21.3230000   16.6670000   27.5800000  
N 20.5620000   17.3910000   26.6690000  
O 22.8680000   14.9690000   28.3060000  
C 22.0930000   15.3900000   27.2800000  
O 22.0900000   14.9200000   26.1490000  
O 18.1900000   21.4630000   26.7870000  
O 19.3020000   21.7560000   29.4760000  
H 20.8170000   19.7050000   30.2930000  
H 21.9160000   17.1650000   29.7010000  
H 22.8270000   15.5850000   29.0570000  
H 20.4740000   17.1130000   25.6700000  
C 18.8780000   19.2390000   25.1780000  
C 17.8700000   18.2850000   24.8770000  
C 17.4100000   18.2230000   23.6090000  
C 17.9740000   18.7510000   22.4640000  
C 18.9920000   19.6450000   22.7930000  
C 19.4790000   19.9260000   24.1100000  
C 16.9870000   17.4670000   25.6980000  
C 16.1090000   16.8110000   24.9180000  
N 16.4200000   17.2040000   23.6090000  
O 14.8570000   15.8500000   26.7950000  
C 15.0200000   15.9270000   25.4230000  
O 14.3440000   15.2470000   24.6720000  
O 19.5530000   20.3210000   21.7280000  
O 20.5130000   20.8310000   24.2530000  
H 17.0320000   17.4340000   26.8210000  
H 15.4780000   16.4380000   27.1980000  
H 16.0030000   16.7810000   22.6930000  
H 19.5240000   19.7440000   20.8810000  
H 20.7170000   21.2440000   23.4090000  
C 17.4190000   18.4310000   21.0910000  
C 16.8340000   19.4810000   20.3050000  
C 16.2900000   19.2130000   19.1040000  
C 16.1780000   17.9140000   18.4850000  
C 16.8100000   16.8750000   19.2360000  
C 17.3300000   17.1200000   20.5840000  
C 16.6100000   20.8940000   20.5730000  
C 15.9430000   21.4210000   19.4360000  
N 15.6920000   20.2890000   18.6220000  
O 16.0740000   23.6960000   20.1030000  
C 15.6540000   22.7870000   19.1540000  
O 15.0910000   23.1630000   18.1940000  
O 16.9390000   15.6220000   18.7580000  
O 17.8480000   16.1280000   21.3270000  
H 17.1380000   21.4440000   21.3500000  
H 16.5500000   23.2740000   20.8250000  
H 15.2740000   20.3570000   17.6850000  
H 16.3720000   15.5030000   17.9520000  
H 17.8050000   15.3510000   20.7730000  
C 15.6610000   17.6880000   17.0870000  
C 16.4390000   17.9390000   15.9690000  
C 15.9030000   17.9190000   14.7320000  
C 14.6140000   17.5240000   14.5200000  
C 13.7580000   17.2710000   15.5960000  
C 14.3070000   17.4000000   16.9350000  
C 17.7500000   18.4220000   15.9590000  
C 18.0320000   18.6000000   14.5740000  
N 16.8990000   18.1980000   13.8360000  
O 20.3580000   19.2290000   14.6930000  
C 19.2740000   19.0360000   13.9320000  
O 19.3710000   19.1440000   12.7320000  
O 12.3640000   17.0700000   15.4880000  
O 13.5710000   17.4230000   18.0610000  
H 18.4410000   18.6370000   16.7540000  
H 19.9570000   19.1560000   15.6030000  
H 16.9170000   18.2290000   12.7650000  
H 11.8600000   17.1750000   16.3150000  
H 14.1070000   17.9820000   18.6520000  
H 14.2210000   17.5950000   13.4670000  
