76
011 
C 10.6450000   20.6260000   23.4800000  
C 10.5260000   20.5810000   24.9340000  
C 11.6180000   20.1910000   25.6900000  
C 12.8450000   19.9150000   25.0670000  
C 13.1070000   19.9670000   23.7200000  
C 12.0250000   20.2670000   22.7740000  
C 11.7780000   19.8930000   27.0900000  
C 13.1220000   19.5720000   27.3000000  
N 13.7180000   19.6380000   26.0910000  
O 12.9130000   18.7290000   29.5700000  
C 13.7610000   19.1770000   28.5760000  
O 14.9400000   19.0890000   28.7390000  
O 12.1710000   20.2010000   21.5800000  
O  9.7060000   20.9740000   22.7540000  
H  9.5570000   20.8100000   25.2890000  
H 10.9900000   19.9930000   27.8710000  
H 12.0560000   18.9860000   29.1300000  
H 14.7080000   19.4670000   25.9660000  
C 14.5160000   19.6350000   23.2630000  
C 14.7860000   18.4440000   22.5320000  
C 16.1120000   17.9740000   22.2990000  
C 17.2260000   18.6970000   22.6010000  
C 17.0330000   19.9550000   23.3450000  
C 15.6740000   20.3740000   23.6240000  
C 13.9160000   17.3900000   22.0160000  
C 14.7320000   16.4310000   21.4150000  
N 16.0870000   16.7550000   21.6480000  
O 12.8720000   15.1250000   20.5920000  
C 14.2010000   15.3000000   20.5500000  
O 14.8940000   14.6030000   19.8840000  
O 18.0700000   20.7470000   23.6970000  
O 15.5250000   21.5940000   24.2620000  
H 12.8440000   17.4250000   22.0140000  
H 12.5180000   15.8040000   21.2050000  
H 16.9840000   16.3220000   21.2780000  
H 18.9750000   20.2590000   23.6220000  
H 16.4330000   21.9170000   24.2570000  
C 18.5940000   18.3190000   22.0750000  
C 18.7170000   18.1960000   20.6780000  
C 19.9220000   17.8500000   20.1500000  
C 21.0530000   17.5080000   20.8810000  
C 20.9150000   17.6360000   22.2960000  
C 19.7090000   18.0370000   22.8810000  
C 17.8250000   18.3570000   19.6010000  
C 18.5780000   18.1150000   18.4510000  
N 19.8960000   17.8370000   18.7540000  
O 16.7160000   17.9120000   16.9780000  
C 18.0290000   17.8850000   17.0860000  
O 18.8600000   17.6110000   16.2160000  
O 21.9750000   17.1590000   23.0990000  
O 19.5610000   18.0350000   24.2400000  
H 16.8160000   18.8090000   19.6390000  
H 16.3390000   18.0760000   17.8310000  
H 20.6680000   17.7720000   18.1220000  
H 22.7040000   16.7860000   22.6330000  
H 20.3820000   17.8510000   24.6500000  
C 22.3450000   17.2050000   20.1490000  
C 22.9100000   18.2620000   19.3330000  
C 24.1030000   18.0330000   18.7350000  
C 24.8460000   16.8440000   18.8560000  
C 24.3630000   15.8300000   19.6910000  
C 23.0960000   15.9670000   20.2670000  
C 22.5400000   19.6140000   19.0580000  
C 23.5190000   20.0690000   18.1180000  
N 24.4120000   19.0340000   17.8260000  
O 22.2920000   22.0640000   17.5790000  
C 23.5070000   21.3870000   17.4430000  
O 24.4580000   21.8110000   16.8010000  
O 25.0280000   14.6670000   19.8220000  
O 22.5970000   14.8600000   20.9460000  
H 21.6730000   20.1400000   19.3760000  
H 21.6870000   21.3370000   17.8350000  
H 25.1230000   18.9850000   17.1040000  
H 24.3790000   13.9730000   19.9670000  
H 21.7080000   15.0780000   21.2720000  
H 25.8300000   16.7650000   18.4360000  
