76
011 
C 19.9430000   14.2770000   27.8840000  
C 21.4150000   14.6140000   27.8030000  
C 21.8200000   15.5030000   26.8470000  
C 21.0270000   16.1420000   25.9310000  
C 19.6890000   15.9130000   25.7670000  
C 19.0320000   14.9430000   26.6650000  
C 23.1130000   15.9430000   26.6110000  
C 23.0890000   16.9490000   25.6750000  
N 21.8380000   16.8720000   25.1080000  
O 25.3900000   17.8150000   25.8940000  
C 24.2450000   17.7430000   25.1080000  
O 24.1270000   18.3500000   24.0630000  
O 17.8610000   14.6490000   26.5840000  
O 19.4450000   13.5140000   28.7150000  
H 22.1050000   13.9880000   28.4670000  
H 23.9390000   15.4440000   27.1330000  
H 25.3450000   17.0830000   26.5750000  
H 21.5170000   17.3730000   24.2980000  
C 19.0240000   16.6010000   24.6330000  
C 18.5180000   15.8530000   23.5820000  
C 18.0220000   16.5370000   22.5060000  
C 17.8480000   17.9210000   22.4510000  
C 18.2450000   18.6240000   23.5930000  
C 18.8140000   17.9700000   24.6890000  
C 18.3110000   14.4720000   23.3040000  
C 17.8200000   14.3630000   21.9850000  
N 17.5840000   15.6520000   21.5530000  
O 18.0210000   12.0350000   21.6610000  
C 17.6950000   13.1780000   21.1350000  
O 17.3900000   13.3120000   19.9220000  
O 18.0110000   19.9880000   23.6700000  
O 19.0810000   18.5870000   25.8630000  
H 18.5400000   13.6400000   23.9960000  
H 18.2490000   12.2420000   22.5660000  
H 17.2250000   15.8670000   20.6730000  
H 17.7100000   20.3260000   22.8120000  
H 19.0590000   19.4940000   25.7220000  
C 17.3830000   18.6700000   21.2160000  
C 16.2170000   19.4470000   21.2410000  
C 15.6210000   19.9150000   20.1110000  
C 16.2840000   19.8980000   18.8450000  
C 17.4950000   19.2480000   18.7880000  
C 17.9680000   18.5220000   19.9100000  
C 15.2880000   19.6170000   22.3060000  
C 14.1180000   20.0830000   21.7390000  
N 14.3810000   20.2810000   20.3680000  
O 12.8010000   19.5540000   23.7190000  
C 12.8840000   20.2110000   22.5260000  
O 11.9040000   20.7590000   22.1210000  
O 18.2520000   19.3720000   17.6990000  
O 19.0940000   17.7520000   19.6850000  
H 15.3450000   19.4120000   23.3760000  
H 13.5870000   19.0020000   23.7160000  
H 13.6480000   20.4270000   19.6960000  
H 17.9790000   20.1750000   17.2410000  
H 19.2760000   17.6500000   18.7090000  
C 15.6130000   20.5970000   17.7100000  
C 15.5510000   22.0140000   17.5850000  
C 15.0820000   22.6150000   16.4170000  
C 14.6400000   21.8520000   15.3540000  
C 14.7040000   20.4060000   15.3550000  
C 15.0840000   19.8260000   16.5950000  
C 15.9690000   23.1140000   18.4260000  
C 15.5620000   24.2980000   17.8190000  
N 15.0680000   24.0080000   16.4960000  
O 16.3650000   25.6370000   19.5340000  
C 15.7820000   25.6640000   18.3710000  
O 15.4080000   26.6350000   17.7620000  
O 14.1240000   19.6660000   14.3970000  
O 15.2990000   18.4640000   16.5160000  
H 16.4360000   23.0310000   19.4520000  
H 16.5190000   24.6460000   19.6970000  
H 14.6820000   24.6640000   15.8450000  
H 14.0070000   18.7660000   14.7720000  
H 15.8890000   18.2490000   17.3100000  
H 14.2440000   22.3530000   14.4160000  
