76
011 
C 12.3120000   18.8050000   27.3080000  
C 12.2650000   20.2160000   27.5630000  
C 13.1260000   21.0380000   26.9060000  
C 13.9860000   20.6350000   25.8700000  
C 14.0390000   19.3200000   25.4010000  
C 13.1850000   18.3200000   26.0650000  
C 13.2990000   22.4700000   27.0680000  
C 14.2320000   22.9060000   26.1350000  
N 14.6580000   21.7640000   25.3850000  
O 13.9520000   25.1760000   26.7980000  
C 14.6870000   24.3060000   26.0280000  
O 15.6220000   24.7150000   25.3050000  
O 13.1840000   17.1680000   25.7240000  
O 11.7130000   18.0130000   28.0180000  
H 11.7370000   20.6170000   28.3800000  
H 12.7660000   23.0820000   27.7570000  
H 13.3720000   24.6050000   27.3330000  
H 15.1940000   21.7360000   24.5860000  
C 15.0240000   18.9320000   24.3700000  
C 16.3650000   19.1960000   24.5670000  
C 17.3440000   18.8440000   23.6770000  
C 17.0390000   18.4040000   22.3570000  
C 15.6570000   18.2190000   22.0820000  
C 14.6400000   18.5760000   23.0610000  
C 17.0990000   19.5810000   25.7820000  
C 18.4820000   19.5480000   25.4220000  
N 18.6330000   19.0190000   24.1510000  
O 19.4090000   20.2340000   27.5670000  
C 19.6580000   19.8170000   26.3060000  
O 20.7440000   19.8730000   25.8200000  
O 15.1290000   18.0000000   20.8070000  
O 13.3160000   18.6570000   22.7980000  
H 16.6330000   19.7070000   26.7510000  
H 18.4500000   20.1070000   27.4970000  
H 19.4340000   19.0710000   23.5680000  
H 15.9620000   17.7920000   20.2340000  
H 13.3450000   18.2180000   21.8830000  
C 18.1490000   18.2410000   21.3410000  
C 18.4080000   17.0120000   20.7270000  
C 19.2750000   16.8950000   19.7170000  
C 20.0440000   17.9100000   19.1290000  
C 19.8250000   19.2100000   19.7390000  
C 18.8940000   19.3530000   20.8380000  
C 17.9360000   15.6490000   21.0100000  
C 18.5860000   14.7620000   20.1400000  
N 19.3780000   15.5610000   19.3020000  
O 17.6750000   12.7290000   21.0440000  
C 18.4960000   13.2530000   20.1190000  
O 19.0850000   12.5220000   19.3530000  
O 20.2460000   20.3120000   19.0590000  
O 18.7260000   20.6420000   21.3610000  
H 17.3070000   15.3030000   21.8270000  
H 17.5330000   13.4290000   21.6560000  
H 20.0000000   15.2630000   18.5090000  
H 20.9770000   20.0630000   18.4560000  
H 19.4920000   21.1120000   21.1010000  
C 21.0840000   17.6090000   18.1100000  
C 20.7580000   17.2690000   16.8010000  
C 21.7220000   16.9430000   15.8830000  
C 23.0820000   16.9980000   16.1750000  
C 23.3930000   17.3030000   17.4910000  
C 22.4220000   17.6550000   18.4480000  
C 19.4780000   17.4140000   16.1230000  
C 19.7550000   17.0230000   14.8010000  
N 21.1280000   16.7910000   14.6590000  
O 17.4700000   17.2150000   14.0600000  
C 18.7420000   16.9530000   13.6640000  
O 18.9590000   16.5700000   12.5380000  
O 24.6990000   17.2560000   17.8550000  
O 22.8340000   17.9400000   19.7350000  
H 18.4980000   17.5440000   16.5240000  
H 17.4790000   17.1170000   15.0600000  
H 21.5390000   16.6240000   13.7430000  
H 24.7050000   17.5910000   18.7600000  
H 22.0800000   18.2800000   20.2700000  
H 23.8390000   16.6880000   15.4890000  
