76
011 
C 22.6720000   13.5910000   24.6440000  
C 21.8050000   12.5690000   25.3280000  
C 20.4020000   12.7410000   25.3370000  
C 19.8110000   13.9260000   24.9770000  
C 20.3790000   14.8600000   24.1470000  
C 21.9270000   14.7680000   23.9210000  
C 19.4510000   11.9660000   25.9410000  
C 18.2130000   12.6540000   25.9310000  
N 18.4650000   13.8050000   25.2350000  
O 16.9560000   10.9710000   27.0260000  
C 16.9200000   12.1870000   26.4650000  
O 15.8680000   12.8210000   26.4220000  
O 22.4680000   15.5930000   23.2550000  
O 23.9130000   13.4780000   24.6680000  
H 22.2960000   11.6760000   25.7110000  
H 19.7150000   11.0610000   26.4570000  
H 17.8900000   10.7950000   27.1440000  
H 17.8680000   14.5930000   25.0160000  
C 19.6010000   15.9750000   23.5320000  
C 19.0460000   17.0870000   24.2390000  
C 18.1700000   17.9850000   23.6240000  
C 17.7200000   17.9130000   22.2960000  
C 18.2840000   16.8380000   21.6120000  
C 19.1710000   15.8740000   22.1990000  
C 19.2960000   17.5390000   25.5920000  
C 18.7590000   18.8470000   25.5720000  
N 18.0790000   19.1110000   24.3670000  
O 19.5750000   19.4560000   27.7280000  
C 18.7500000   19.7850000   26.7450000  
O 18.0810000   20.8150000   26.8170000  
O 18.0620000   16.6340000   20.3070000  
O 19.5180000   14.7250000   21.5700000  
H 19.7690000   17.0840000   26.4180000  
H 19.8800000   18.4840000   27.6480000  
H 17.6010000   19.9810000   24.1100000  
H 17.5710000   17.3780000   19.9620000  
H 19.0830000   14.6890000   20.7360000  
C 16.9510000   19.0240000   21.5570000  
C 17.6310000   20.1170000   21.0420000  
C 17.0260000   21.0230000   20.2020000  
C 15.6640000   20.9660000   19.9250000  
C 14.8860000   19.9090000   20.5730000  
C 15.5140000   18.9440000   21.3700000  
C 19.0670000   20.3950000   20.9500000  
C 19.2170000   21.6000000   20.2050000  
N 17.9490000   21.8380000   19.6660000  
O 21.5070000   22.0110000   20.5990000  
C 20.4220000   22.4190000   19.8780000  
O 20.4580000   23.3930000   19.1860000  
O 13.4900000   19.8110000   20.3400000  
O 14.8100000   17.9060000   21.8810000  
H 19.8370000   19.8500000   21.4340000  
H 21.0190000   21.3810000   21.0840000  
H 17.7250000   22.3950000   18.8110000  
H 13.1650000   20.6770000   19.9590000  
H 13.8730000   18.2550000   22.1210000  
C 14.9120000   21.9980000   19.1040000  
C 14.9970000   21.9920000   17.6970000  
C 14.1640000   22.7660000   16.9800000  
C 13.2200000   23.6170000   17.5090000  
C 13.1410000   23.6680000   18.9150000  
C 14.0250000   22.8930000   19.7320000  
C 15.7440000   21.1430000   16.7510000  
C 15.4390000   21.5580000   15.4820000  
N 14.5000000   22.6220000   15.6560000  
O 16.8270000   20.0310000   14.4090000  
C 16.0330000   21.1070000   14.1950000  
O 15.8080000   21.5260000   13.1190000  
O 12.2280000   24.5390000   19.5280000  
O 13.9480000   22.9220000   21.0770000  
H 16.4500000   20.2780000   16.9760000  
H 16.5780000   19.6930000   15.2970000  
H 14.1970000   23.1540000   14.9040000  
H 12.5070000   24.6350000   20.4390000  
H 14.7610000   22.6230000   21.4920000  
H 12.5850000   24.1860000   16.8770000  
