76
011 
C 21.1910000   14.0950000   26.8220000  
C 21.6370000   12.9500000   26.0740000  
C 21.4720000   12.9300000   24.7310000  
C 20.8870000   13.9360000   23.9950000  
C 20.2890000   15.0330000   24.5900000  
C 20.3670000   15.2450000   26.0320000  
C 21.8610000   11.9580000   23.7630000  
C 21.4110000   12.3740000   22.4950000  
N 20.8760000   13.6280000   22.6790000  
O 22.1850000   10.4690000   21.2910000  
C 21.4140000   11.5460000   21.2270000  
O 20.7140000   11.7320000   20.2920000  
O 19.9450000   16.0980000   26.7460000  
O 21.6570000   14.1780000   27.9930000  
H 22.1300000   12.1330000   26.5730000  
H 22.3640000   10.9970000   23.9530000  
H 22.5890000   10.4870000   22.1640000  
H 20.3380000   14.2000000   22.0670000  
C 19.5450000   15.9530000   23.7300000  
C 18.2900000   15.6180000   23.1940000  
C 17.6790000   16.5170000   22.3760000  
C 18.1030000   17.8290000   22.0870000  
C 19.3890000   18.1070000   22.6280000  
C 20.0950000   17.2300000   23.4590000  
C 17.2850000   14.6280000   23.4700000  
C 16.0990000   15.0240000   22.7710000  
N 16.4010000   16.1990000   22.0730000  
O 14.3270000   13.3800000   23.6340000  
C 14.6620000   14.4530000   22.8570000  
O 13.7720000   15.0290000   22.2560000  
O 19.9540000   19.3380000   22.5080000  
O 21.2310000   17.5610000   24.1240000  
H 17.3730000   13.7660000   24.0460000  
H 15.0610000   13.1820000   24.2520000  
H 15.6860000   16.7500000   21.5270000  
H 19.3940000   19.8170000   21.8610000  
H 21.3430000   18.5670000   24.2060000  
C 17.4440000   18.9230000   21.3140000  
C 17.1490000   20.1890000   21.8520000  
C 16.3900000   21.0740000   21.1450000  
C 15.9200000   20.9010000   19.8320000  
C 16.4000000   19.6810000   19.2000000  
C 17.1350000   18.7320000   19.9370000  
C 17.1830000   20.6330000   23.2230000  
C 16.5150000   21.8790000   23.2250000  
N 16.0140000   22.1170000   21.9320000  
O 17.0130000   22.4750000   25.4720000  
C 16.3560000   22.8380000   24.3110000  
O 15.6640000   23.8340000   24.1970000  
O 16.1870000   19.5560000   17.8560000  
O 17.4070000   17.6140000   19.2660000  
H 17.5730000   20.1400000   24.0770000  
H 17.6980000   21.8490000   25.2250000  
H 15.4870000   22.9430000   21.6230000  
H 15.6630000   20.3150000   17.4930000  
H 17.4550000   17.8780000   18.3320000  
C 15.0780000   21.9520000   19.0810000  
C 15.6500000   23.1930000   18.6150000  
C 14.8980000   24.1110000   17.9620000  
C 13.5450000   23.9340000   17.7270000  
C 12.9660000   22.7350000   18.2190000  
C 13.7060000   21.7010000   18.8370000  
C 16.9900000   23.7770000   18.6690000  
C 16.9140000   24.9760000   17.9410000  
N 15.6490000   25.2280000   17.5770000  
O 19.2420000   25.2930000   18.2100000  
C 18.0880000   25.8320000   17.6540000  
O 18.0710000   26.8520000   17.0330000  
O 11.6200000   22.6110000   18.1160000  
O 13.0220000   20.5900000   19.1760000  
H 17.9310000   23.3970000   18.9680000  
H 18.9810000   24.3870000   18.6390000  
H 15.3570000   25.9350000   16.9380000  
H 11.3420000   21.8580000   18.7090000  
H 13.5400000   19.9680000   19.7440000  
H 12.9380000   24.6770000   17.2470000  
