76
011 
C 13.3930000   12.8730000   24.5320000  
C 13.0590000   11.9710000   23.3430000  
C 13.6850000   12.1850000   22.1440000  
C 14.5700000   13.2320000   22.0270000  
C 14.8980000   14.1600000   22.9850000  
C 14.3710000   14.0250000   24.3250000  
C 13.5990000   11.5500000   20.8670000  
C 14.3120000   12.2780000   19.9440000  
N 14.9090000   13.3320000   20.7210000  
O 13.9960000   10.8330000   18.0440000  
C 14.4630000   12.0560000   18.4640000  
O 14.8900000   12.9210000   17.7250000  
O 14.6400000   14.8630000   25.1850000  
O 12.8390000   12.6120000   25.5720000  
H 12.1600000   11.3080000   23.5020000  
H 12.9840000   10.6620000   20.7410000  
H 13.9990000   10.1790000   18.7870000  
H 15.4710000   14.0550000   20.3060000  
C 15.8300000   15.2260000   22.5380000  
C 15.3510000   16.4570000   21.9730000  
C 16.2460000   17.4790000   21.7230000  
C 17.6250000   17.4900000   22.0570000  
C 18.0590000   16.2220000   22.4830000  
C 17.2250000   15.1160000   22.7510000  
C 14.0500000   16.9550000   21.5990000  
C 14.2260000   18.3340000   21.2460000  
N 15.5930000   18.5860000   21.2820000  
O 11.9380000   19.0850000   20.9620000  
C 13.2520000   19.4280000   20.9310000  
O 13.5610000   20.5790000   20.7560000  
O 19.4230000   16.0510000   22.8160000  
O 17.7430000   13.9740000   23.3150000  
H 13.0820000   16.4570000   21.6830000  
H 12.0300000   18.1150000   21.1230000  
H 16.1070000   19.4080000   21.0200000  
H 19.8250000   16.8520000   22.5150000  
H 18.5290000   14.2250000   23.6540000  
C 18.5460000   18.6540000   21.7740000  
C 18.4670000   19.8570000   22.5260000  
C 19.0970000   20.9850000   22.1340000  
C 19.7760000   21.1670000   20.9800000  
C 19.9650000   19.9900000   20.2120000  
C 19.3760000   18.7580000   20.5750000  
C 17.7470000   20.1270000   23.7230000  
C 17.9880000   21.4810000   23.9910000  
N 18.9750000   21.9860000   23.0900000  
O 16.3620000   21.6990000   25.8010000  
C 17.3950000   22.2330000   25.1550000  
O 17.8620000   23.3400000   25.4400000  
O 20.8600000   20.1140000   19.1070000  
O 19.6330000   17.5810000   19.8190000  
H 16.9460000   19.4520000   24.1890000  
H 16.1640000   20.8600000   25.2920000  
H 19.3780000   22.8830000   23.1190000  
H 21.4040000   20.8990000   19.2330000  
H 20.3880000   17.7010000   19.2390000  
C 20.4030000   22.4850000   20.5320000  
C 21.6360000   22.9040000   20.9650000  
C 22.2280000   24.0580000   20.5170000  
C 21.4890000   24.9770000   19.6350000  
C 20.1450000   24.6250000   19.2110000  
C 19.6880000   23.3220000   19.6110000  
C 22.6680000   22.2240000   21.8130000  
C 23.7730000   23.0650000   21.8050000  
N 23.5360000   24.1530000   20.9440000  
O 25.0380000   21.5960000   23.1320000  
C 25.0470000   22.7730000   22.4960000  
O 25.9970000   23.5340000   22.4700000  
O 19.4800000   25.4190000   18.3880000  
O 18.4390000   22.9500000   19.1920000  
H 22.6760000   21.2110000   22.1930000  
H 24.3670000   21.0080000   22.7750000  
H 24.2070000   24.8340000   20.6150000  
H 18.5970000   25.0090000   18.1550000  
H 18.1340000   22.3560000   19.8680000  
H 21.9740000   25.8780000   19.3900000  
