76
011 
C 19.4240000   14.3170000   27.4090000  
C 20.8780000   14.0600000   27.5490000  
C 21.7580000   14.6030000   26.6420000  
C 21.3260000   15.3560000   25.5540000  
C 20.0150000   15.6650000   25.2810000  
C 18.9480000   15.2640000   26.2330000  
C 23.1140000   14.4380000   26.4480000  
C 23.5690000   15.0630000   25.2840000  
N 22.4190000   15.6380000   24.7950000  
O 25.8930000   14.3370000   25.1600000  
C 24.9230000   15.1760000   24.6590000  
O 25.1200000   15.9120000   23.6660000  
O 17.7190000   15.5380000   26.1870000  
O 18.7080000   13.8480000   28.2900000  
H 21.2020000   13.4350000   28.4010000  
H 23.7760000   13.9540000   27.1970000  
H 25.3920000   13.8010000   25.8550000  
H 22.3630000   16.2240000   23.9770000  
C 19.5950000   16.4180000   24.1480000  
C 18.6850000   15.9070000   23.1840000  
C 18.1520000   16.7190000   22.2290000  
C 18.2860000   18.0570000   22.1670000  
C 19.3020000   18.5770000   22.9630000  
C 19.8030000   17.8080000   24.0870000  
C 18.0490000   14.5640000   23.1500000  
C 17.2670000   14.6470000   22.0130000  
N 17.3210000   15.9630000   21.4370000  
O 16.2830000   12.4670000   22.1450000  
C 16.4430000   13.6320000   21.4160000  
O 15.9820000   13.7460000   20.2770000  
O 19.5910000   19.9000000   22.8890000  
O 20.6460000   18.4070000   25.0640000  
H 18.0670000   13.7710000   23.9150000  
H 16.4960000   12.7150000   23.0380000  
H 16.8600000   16.2790000   20.6110000  
H 18.9940000   20.2750000   22.2300000  
H 20.5010000   19.3610000   25.0000000  
C 17.5560000   18.9050000   21.1120000  
C 16.5290000   19.7990000   21.3970000  
C 15.7480000   20.2040000   20.3760000  
C 15.8630000   20.0330000   19.0300000  
C 16.9400000   19.1160000   18.6520000  
C 17.7560000   18.5900000   19.7200000  
C 16.0260000   20.2810000   22.6500000  
C 14.9230000   21.0520000   22.2870000  
N 14.8450000   21.0700000   20.8680000  
O 14.1750000   21.4130000   24.5120000  
C 13.9220000   21.6410000   23.1840000  
O 12.9490000   22.2640000   22.7920000  
O 17.1950000   18.8270000   17.2960000  
O 18.8780000   17.8480000   19.3630000  
H 16.2130000   19.8900000   23.6530000  
H 15.0880000   21.0570000   24.5260000  
H 14.1540000   21.6540000   20.3300000  
H 16.5660000   19.2590000   16.7220000  
H 19.0690000   18.0660000   18.4150000  
C 15.0240000   20.8700000   18.1050000  
C 15.2090000   22.2520000   17.8330000  
C 14.3710000   22.9690000   16.9930000  
C 13.4110000   22.3200000   16.2180000  
C 13.1990000   20.9740000   16.4160000  
C 13.9380000   20.1930000   17.3860000  
C 16.1260000   23.2480000   18.3910000  
C 15.8620000   24.4760000   17.7820000  
N 14.8150000   24.2990000   16.8760000  
O 17.5170000   25.8340000   19.0640000  
C 16.4340000   25.8070000   18.1610000  
O 16.0230000   26.8660000   17.7390000  
O 12.3150000   20.3260000   15.6050000  
O 13.6400000   18.8490000   17.5400000  
H 16.9240000   23.0530000   19.1870000  
H 17.8640000   24.9250000   19.2700000  
H 14.5190000   24.9400000   16.2380000  
H 12.4810000   19.3930000   15.7050000  
H 13.9550000   18.5680000   18.4070000  
H 12.8840000   22.8800000   15.4430000  
