76
011 
C 23.6870000   15.2300000   25.3390000  
C 22.9130000   14.3520000   26.3430000  
C 21.5240000   14.3490000   26.3920000  
C 20.7670000   15.1190000   25.5290000  
C 21.2700000   16.0460000   24.6110000  
C 22.7050000   16.2190000   24.4650000  
C 20.5650000   13.5900000   27.1370000  
C 19.2750000   13.8230000   26.6280000  
N 19.4160000   14.7510000   25.6160000  
O 18.0820000   12.2530000   28.0050000  
C 17.9470000   13.2400000   27.0970000  
O 16.8460000   13.6690000   26.7370000  
O 23.2660000   17.0150000   23.7000000  
O 24.8830000   15.1040000   25.0610000  
H 23.5420000   13.6010000   26.8670000  
H 20.7660000   12.8000000   27.8470000  
H 19.0480000   12.0480000   28.0070000  
H 18.6010000   15.1780000   25.2080000  
C 20.2990000   16.7900000   23.7630000  
C 19.3900000   17.6940000   24.4020000  
C 18.4030000   18.2010000   23.5590000  
C 18.2330000   18.0330000   22.1580000  
C 19.0660000   17.0220000   21.6170000  
C 20.1090000   16.4040000   22.3900000  
C 19.1580000   18.2140000   25.7060000  
C 18.2050000   19.2030000   25.5370000  
N 17.7410000   19.1740000   24.1900000  
O 18.3640000   19.9490000   27.8080000  
C 17.8050000   20.1390000   26.5340000  
O 17.0270000   21.1010000   26.2880000  
O 19.0000000   16.6410000   20.2860000  
O 20.9370000   15.5880000   21.8180000  
H 19.7090000   18.0110000   26.5820000  
H 18.8830000   19.1380000   27.6960000  
H 17.0130000   19.7740000   23.7630000  
H 18.3260000   17.0540000   19.8580000  
H 20.6530000   15.4590000   20.8990000  
C 17.1640000   18.7620000   21.4720000  
C 17.4560000   19.7820000   20.5430000  
C 16.5160000   20.3550000   19.8450000  
C 15.0840000   20.2310000   19.9990000  
C 14.7310000   19.2450000   20.9420000  
C 15.7290000   18.5090000   21.6690000  
C 18.7250000   20.3870000   20.2270000  
C 18.4860000   21.2760000   19.1920000  
N 17.0900000   21.2680000   18.9810000  
O 20.7240000   21.8450000   18.7970000  
C 19.4600000   21.9830000   18.3730000  
O 19.1350000   22.7340000   17.4760000  
O 13.3850000   18.9810000   21.1030000  
O 15.3540000   17.5540000   22.5810000  
H 19.6540000   20.1600000   20.7060000  
H 20.7970000   21.1130000   19.3970000  
H 16.5970000   21.8200000   18.2950000  
H 13.0070000   19.3910000   20.3170000  
H 14.3990000   17.4950000   22.5660000  
C 14.1400000   20.9170000   19.0540000  
C 14.2010000   20.6250000   17.6600000  
C 13.5150000   21.4090000   16.7560000  
C 12.6470000   22.4610000   17.1380000  
C 12.6210000   22.8350000   18.5100000  
C 13.3410000   22.0740000   19.4480000  
C 14.9840000   19.6980000   16.7880000  
C 14.7110000   20.0520000   15.4750000  
N 13.8320000   21.1060000   15.4760000  
O 15.8530000   18.2290000   14.4060000  
C 15.1600000   19.3330000   14.2280000  
O 14.8700000   19.5760000   13.0940000  
O 11.9060000   23.9230000   18.8990000  
O 13.5250000   22.5340000   20.6850000  
H 15.6390000   18.8720000   17.0750000  
H 15.6800000   18.0230000   15.3520000  
H 13.3880000   21.5500000   14.6580000  
H 12.0620000   24.0640000   19.8680000  
H 14.0450000   21.9380000   21.1820000  
H 12.3610000   23.1990000   16.4100000  
