76
011 
C 17.1300000   10.8520000   22.3880000  
C 17.6340000   10.8000000   23.7520000  
C 17.9060000   11.8920000   24.5260000  
C 17.7280000   13.1440000   24.0220000  
C 17.4930000   13.4230000   22.6920000  
C 17.0390000   12.2940000   21.7400000  
C 18.3960000   12.0060000   25.8520000  
C 18.4810000   13.3730000   26.1090000  
N 18.1350000   14.0500000   24.9610000  
O 19.1250000   13.2420000   28.2590000  
C 18.9170000   14.0680000   27.2320000  
O 18.9260000   15.2550000   27.3130000  
O 16.6910000   12.5290000   20.6050000  
O 16.7680000    9.8690000   21.7950000  
H 17.6960000    9.7560000   24.1910000  
H 18.5130000   11.1330000   26.5280000  
H 18.6200000   12.4030000   28.0540000  
H 18.1080000   15.0220000   24.8270000  
C 17.3880000   14.8520000   22.3870000  
C 18.5590000   15.6070000   22.1820000  
C 18.4480000   16.9380000   22.1090000  
C 17.2760000   17.7070000   22.1250000  
C 16.1260000   16.9870000   22.2210000  
C 16.1650000   15.5880000   22.4250000  
C 19.9140000   15.1450000   22.0750000  
C 20.5700000   16.3870000   21.8790000  
N 19.6880000   17.4700000   21.8840000  
O 22.7810000   15.4430000   21.7970000  
C 22.0040000   16.5430000   21.6100000  
O 22.5200000   17.5860000   21.2760000  
O 14.8910000   17.6180000   22.1750000  
O 15.0200000   14.8720000   22.5820000  
H 20.4190000   14.2270000   22.0960000  
H 22.1340000   14.7370000   22.1300000  
H 19.8770000   18.4140000   21.5140000  
H 15.1150000   18.4490000   21.8230000  
H 14.2940000   15.4410000   22.7950000  
C 17.3880000   19.1630000   21.9830000  
C 17.8420000   19.6230000   20.7330000  
C 17.9160000   20.9420000   20.5590000  
C 17.4770000   21.9350000   21.4000000  
C 16.9610000   21.4320000   22.6340000  
C 16.8630000   20.0890000   22.9670000  
C 18.2230000   19.0020000   19.4800000  
C 18.5620000   20.0490000   18.6010000  
N 18.4570000   21.2340000   19.3560000  
O 18.7050000   18.6790000   16.6980000  
C 18.8840000   19.8880000   17.2230000  
O 19.1050000   20.7830000   16.4500000  
O 16.4330000   22.3510000   23.4890000  
O 16.1200000   19.6980000   24.1170000  
H 18.3100000   17.9540000   19.3310000  
H 18.3890000   18.1100000   17.4430000  
H 18.8670000   22.0960000   19.0350000  
H 16.3250000   23.2050000   23.0840000  
H 15.6430000   20.4300000   24.4740000  
C 17.5650000   23.3300000   21.0570000  
C 16.5610000   23.9380000   20.2610000  
C 16.7020000   25.2650000   19.8750000  
C 17.7430000   26.0780000   20.3430000  
C 18.6970000   25.5480000   21.1930000  
C 18.6070000   24.1810000   21.5390000  
C 15.2890000   23.4290000   19.6870000  
C 14.6870000   24.5030000   19.0620000  
N 15.5720000   25.5910000   19.1350000  
O 12.7990000   23.2550000   18.3780000  
C 13.3610000   24.5060000   18.4670000  
O 12.7480000   25.5010000   18.0900000  
O 19.5920000   26.3870000   21.7570000  
O 19.6330000   23.6570000   22.2320000  
H 14.8860000   22.4740000   19.8320000  
H 13.6020000   22.7480000   18.5620000  
H 15.3690000   26.4620000   18.7430000  
H 20.2700000   25.8680000   22.2380000  
H 19.6830000   22.6360000   22.1550000  
H 17.8040000   27.0610000   19.9460000  
