76
011 
C 21.5400000   17.6690000   28.1830000  
C 21.6770000   16.1510000   28.2790000  
C 21.3760000   15.3410000   27.2420000  
C 20.6660000   15.8120000   26.1320000  
C 20.3820000   17.1260000   25.9530000  
C 20.8110000   18.1850000   26.9150000  
C 21.4020000   13.9280000   27.1400000  
C 20.7960000   13.5290000   25.9560000  
N 20.4010000   14.7250000   25.3360000  
O 20.7120000   11.1650000   26.2920000  
C 20.4140000   12.1650000   25.4470000  
O 19.8400000   12.0970000   24.3770000  
O 20.6680000   19.3910000   26.7840000  
O 21.9740000   18.3980000   29.0770000  
H 22.2380000   15.7350000   29.1160000  
H 21.7710000   13.2980000   27.9490000  
H 20.8430000   11.6590000   27.1080000  
H 19.9560000   14.7110000   24.3930000  
C 19.7300000   17.4050000   24.6640000  
C 18.3370000   17.6270000   24.7030000  
C 17.6820000   17.9410000   23.5370000  
C 18.2460000   17.9670000   22.2460000  
C 19.6270000   17.6570000   22.1870000  
C 20.3660000   17.3510000   23.4170000  
C 17.4850000   17.9300000   25.8180000  
C 16.3160000   18.4350000   25.1920000  
N 16.4200000   18.3850000   23.7770000  
O 15.1600000   19.0230000   27.3050000  
C 15.1240000   18.9350000   25.9110000  
O 14.0640000   19.1690000   25.3530000  
O 20.2700000   17.6650000   20.9890000  
O 21.7360000   17.2270000   23.4570000  
H 17.6870000   17.9460000   26.8900000  
H 16.0700000   18.6480000   27.5760000  
H 15.8070000   18.7440000   23.0840000  
H 19.7760000   17.0380000   20.4510000  
H 22.1650000   17.6200000   22.6510000  
C 17.4900000   18.3820000   21.0230000  
C 16.8580000   19.6900000   20.9010000  
C 16.0790000   20.0570000   19.8560000  
C 15.8710000   19.3050000   18.7360000  
C 16.4580000   18.0280000   18.7590000  
C 17.2060000   17.5090000   19.8840000  
C 16.8090000   20.7800000   21.8400000  
C 15.9960000   21.8260000   21.3380000  
N 15.5470000   21.3420000   20.0760000  
O 16.1020000   23.4320000   23.0500000  
C 15.6490000   23.1670000   21.8280000  
O 14.9850000   23.9120000   21.2290000  
O 16.4120000   17.2560000   17.5750000  
O 17.8030000   16.3100000   19.8020000  
H 17.2840000   20.8390000   22.8280000  
H 16.5830000   22.6210000   23.2270000  
H 14.9250000   21.8150000   19.4440000  
H 15.8870000   17.7820000   16.9340000  
H 17.8710000   15.9980000   18.8350000  
C 15.1480000   19.8090000   17.5570000  
C 15.7540000   20.1410000   16.3330000  
C 15.0950000   20.7000000   15.2750000  
C 13.7240000   20.9170000   15.2880000  
C 13.0160000   20.5760000   16.5120000  
C 13.7300000   20.1370000   17.6120000  
C 17.1930000   20.0430000   15.9680000  
C 17.2990000   20.5620000   14.6670000  
N 15.9970000   20.8650000   14.2470000  
O 19.6530000   20.6640000   14.6090000  
C 18.5400000   20.8460000   13.9040000  
O 18.5480000   21.2330000   12.7610000  
O 11.6850000   20.8400000   16.5890000  
O 12.9890000   19.9630000   18.7820000  
H 17.9970000   19.6410000   16.5480000  
H 19.4600000   20.2410000   15.4290000  
H 15.7830000   21.3450000   13.4050000  
H 11.3570000   20.7500000   17.5280000  
H 13.4620000   19.5920000   19.6250000  
H 13.2670000   21.3660000   14.4680000  
