76
011 
C 12.5740000   19.1040000   27.3450000  
C 12.8220000   20.4690000   27.8390000  
C 13.9070000   21.1580000   27.2930000  
C 14.7530000   20.5840000   26.3480000  
C 14.7020000   19.3110000   25.8670000  
C 13.5380000   18.4820000   26.2200000  
C 14.3580000   22.5080000   27.4930000  
C 15.3870000   22.7770000   26.6100000  
N 15.6460000   21.5770000   25.9830000  
O 15.7930000   25.0670000   27.2240000  
C 16.0910000   24.0870000   26.3590000  
O 16.8670000   24.2820000   25.4310000  
O 13.3410000   17.4550000   25.6110000  
O 11.5870000   18.5170000   27.6870000  
H 12.0950000   20.8470000   28.5200000  
H 13.8330000   23.1740000   28.1810000  
H 15.0680000   24.7570000   27.7850000  
H 16.2160000   21.5750000   25.0600000  
C 15.5600000   19.1200000   24.7040000  
C 16.9150000   18.7070000   24.9120000  
C 17.6820000   18.5840000   23.8140000  
C 17.2830000   18.8910000   22.4900000  
C 15.9320000   19.2970000   22.2720000  
C 15.1020000   19.4990000   23.4160000  
C 17.5740000   18.3020000   26.0750000  
C 18.9100000   18.1140000   25.6900000  
N 19.0090000   18.4310000   24.2810000  
O 19.9900000   17.7520000   27.8130000  
C 20.1450000   17.8750000   26.5250000  
O 21.2450000   17.6170000   26.0290000  
O 15.4460000   19.6710000   21.0560000  
O 13.8670000   19.9410000   23.3200000  
H 17.1860000   18.2720000   27.0940000  
H 19.0320000   17.8870000   27.9990000  
H 19.8670000   18.4370000   23.7510000  
H 16.2490000   20.1240000   20.5980000  
H 13.8570000   20.3670000   22.4390000  
C 18.1800000   18.6130000   21.3650000  
C 17.8980000   17.5450000   20.5090000  
C 18.8080000   17.1170000   19.5420000  
C 20.0020000   17.7660000   19.2360000  
C 20.2940000   18.8870000   20.0660000  
C 19.4070000   19.3520000   21.0620000  
C 16.8190000   16.5980000   20.3860000  
C 17.0490000   15.7110000   19.3230000  
N 18.2840000   16.0440000   18.7810000  
O 14.9710000   14.5370000   19.4050000  
C 16.2190000   14.6260000   18.7810000  
O 16.5960000   13.8360000   17.9960000  
O 21.4230000   19.5690000   19.7920000  
O 19.6960000   20.5690000   21.6290000  
H 15.9090000   16.6100000   20.9540000  
H 15.0000000   15.1840000   20.1010000  
H 18.7670000   15.6180000   17.9700000  
H 21.8600000   18.9620000   19.1760000  
H 20.4650000   20.9700000   21.1870000  
C 20.7960000   17.2980000   18.0320000  
C 20.2700000   17.2970000   16.7370000  
C 20.9900000   16.7340000   15.7390000  
C 22.3250000   16.3300000   15.9080000  
C 22.8930000   16.3260000   17.1590000  
C 22.1200000   16.8460000   18.2200000  
C 19.0250000   17.6650000   16.1850000  
C 19.0150000   17.4820000   14.7350000  
N 20.2380000   16.7890000   14.5700000  
O 16.9230000   18.2270000   14.2410000  
C 17.9910000   17.6550000   13.7020000  
O 18.0800000   17.3620000   12.5090000  
O 24.1430000   15.8990000   17.2190000  
O 22.6780000   16.7950000   19.4680000  
H 18.2320000   18.1720000   16.7750000  
H 17.1460000   18.4770000   15.1750000  
H 20.5200000   16.4820000   13.6450000  
H 24.5260000   16.4050000   17.9660000  
H 22.0140000   16.9460000   20.1400000  
H 22.8610000   15.9940000   14.9940000  
