76
011 
C 10.0560000   17.3690000   21.7750000  
C 10.0250000   15.9700000   22.1840000  
C 11.1640000   15.2200000   22.3270000  
C 12.4060000   15.7360000   22.1720000  
C 12.6640000   17.0670000   21.9640000  
C 11.5240000   17.9910000   21.6640000  
C 11.3400000   13.8430000   22.6990000  
C 12.6980000   13.5980000   22.8040000  
N 13.3930000   14.7710000   22.4030000  
O 12.4100000   11.5270000   23.8630000  
C 13.2960000   12.3610000   23.4110000  
O 14.4640000   12.1450000   23.5160000  
O 11.6670000   19.1870000   21.4580000  
O  9.0660000   18.0660000   21.6700000  
H  9.0810000   15.6380000   22.3850000  
H 10.5320000   13.1550000   22.8290000  
H 11.5930000   11.9950000   23.5930000  
H 14.3920000   14.8590000   22.5000000  
C 14.0500000   17.5600000   22.0020000  
C 14.8470000   17.2590000   20.9010000  
C 16.1570000   17.5480000   20.9130000  
C 16.7770000   18.2970000   21.9170000  
C 15.9550000   18.7220000   23.0100000  
C 14.6010000   18.3380000   23.0490000  
C 14.6390000   16.5610000   19.6050000  
C 15.9200000   16.5900000   18.9100000  
N 16.8610000   17.0940000   19.7720000  
O 15.1330000   15.6200000   16.8800000  
C 16.1870000   16.0160000   17.6070000  
O 17.2750000   15.9200000   17.0980000  
O 16.4540000   19.1970000   24.1700000  
O 13.8710000   18.4760000   24.2040000  
H 13.7250000   16.3050000   19.0780000  
H 14.3390000   15.5850000   17.3760000  
H 17.8610000   17.2110000   19.5810000  
H 17.4530000   19.3540000   24.0300000  
H 14.4560000   18.9180000   24.8070000  
C 18.2210000   18.6830000   21.7290000  
C 18.6790000   19.9560000   21.2340000  
C 19.9790000   20.3480000   21.2310000  
C 20.9980000   19.5070000   21.6800000  
C 20.6740000   18.1910000   22.1070000  
C 19.2960000   17.7970000   22.1610000  
C 17.9460000   21.1100000   20.8480000  
C 18.8350000   22.1310000   20.4320000  
N 20.0900000   21.5650000   20.5530000  
O 17.3380000   23.8800000   19.8940000  
C 18.6300000   23.5150000   19.9530000  
O 19.4520000   24.3400000   19.7030000  
O 21.6520000   17.3310000   22.4800000  
O 18.9680000   16.5880000   22.7140000  
H 16.8490000   21.1310000   20.8330000  
H 16.8170000   23.0910000   19.9930000  
H 20.9120000   22.1210000   20.4470000  
H 22.4670000   17.7410000   22.3560000  
H 19.7710000   16.0820000   22.7680000  
C 22.3980000   19.9150000   21.4680000  
C 23.0360000   20.8210000   22.3600000  
C 24.3690000   21.1620000   22.3480000  
C 25.1590000   20.4740000   21.4320000  
C 24.5810000   19.6180000   20.4990000  
C 23.2040000   19.3840000   20.4820000  
C 22.5560000   21.6540000   23.3940000  
C 23.6750000   22.1450000   24.1010000  
N 24.8270000   21.7620000   23.4950000  
O 22.5880000   23.0950000   26.0000000  
C 23.7500000   22.9310000   25.3490000  
O 24.7830000   23.4750000   25.6510000  
O 25.3840000   19.1100000   19.5500000  
O 22.5890000   18.5660000   19.6100000  
H 21.5050000   21.8680000   23.5650000  
H 21.9990000   22.6050000   25.4930000  
H 25.7970000   21.9890000   23.6510000  
H 24.7430000   18.7430000   18.8840000  
H 21.6300000   18.6730000   19.6210000  
H 26.1900000   20.5090000   21.5260000  
