76
011 
C 11.1360000   19.2270000   25.5860000  
C 10.2820000   18.3090000   24.8420000  
C 10.8350000   17.4160000   23.9600000  
C 12.1150000   17.5390000   23.5080000  
C 12.9910000   18.5130000   23.9720000  
C 12.6030000   19.3430000   25.0700000  
C 10.3180000   16.4220000   23.0890000  
C 11.3000000   15.8920000   22.2520000  
N 12.3860000   16.6420000   22.5370000  
O  9.8310000   14.3300000   20.9830000  
C 11.0890000   14.9210000   21.1280000  
O 11.9940000   14.7560000   20.3130000  
O 13.3800000   20.0970000   25.6580000  
O 10.6310000   19.9130000   26.4620000  
H  9.2390000   18.2710000   25.1400000  
H  9.3020000   16.0100000   23.0750000  
H  9.2710000   14.7540000   21.6830000  
H 13.2080000   16.6550000   22.0220000  
C 14.3390000   18.5090000   23.3790000  
C 14.6000000   19.2330000   22.1840000  
C 15.8850000   19.4680000   21.7380000  
C 16.8800000   18.5860000   22.1390000  
C 16.7030000   17.8260000   23.2820000  
C 15.4830000   17.8450000   23.9520000  
C 13.7080000   20.1730000   21.4500000  
C 14.5240000   20.8340000   20.5570000  
N 15.8410000   20.2610000   20.6320000  
O 12.8280000   21.9150000   19.3920000  
C 14.1050000   21.7870000   19.5350000  
O 14.8650000   22.4160000   18.7790000  
O 17.6920000   16.9490000   23.6940000  
O 15.3440000   17.0350000   25.1190000  
H 12.6300000   20.4460000   21.5580000  
H 12.4520000   21.1970000   19.9150000  
H 16.5710000   20.4480000   19.9360000  
H 18.4540000   17.0600000   23.0830000  
H 16.0760000   16.3680000   25.1320000  
C 18.2180000   18.6970000   21.4920000  
C 19.3720000   19.1660000   22.1570000  
C 20.5420000   19.3430000   21.5380000  
C 20.7410000   18.9850000   20.1800000  
C 19.5810000   18.5560000   19.4300000  
C 18.2970000   18.4060000   20.1030000  
C 19.6170000   19.5220000   23.5040000  
C 20.9660000   19.7310000   23.6650000  
N 21.5610000   19.4630000   22.4150000  
O 20.8370000   20.2190000   25.8830000  
C 21.6640000   20.1050000   24.8610000  
O 22.8720000   20.1330000   25.0040000  
O 19.7440000   18.0520000   18.1510000  
O 17.2160000   17.8230000   19.4390000  
H 18.8120000   19.7390000   24.2140000  
H 19.9290000   20.1670000   25.5050000  
H 22.5840000   19.3210000   22.2600000  
H 20.7590000   18.1120000   17.9100000  
H 17.5680000   17.7140000   18.5500000  
C 22.0820000   19.0570000   19.5260000  
C 23.1780000   18.2150000   19.8910000  
C 24.3650000   18.2100000   19.1890000  
C 24.5540000   19.0910000   18.1220000  
C 23.5350000   20.0170000   17.8390000  
C 22.2960000   20.0250000   18.5390000  
C 23.3050000   17.1470000   20.8350000  
C 24.5930000   16.6630000   20.6820000  
N 25.2740000   17.3620000   19.7180000  
O 24.2350000   14.7770000   22.2260000  
C 25.1150000   15.4820000   21.4040000  
O 26.2370000   15.1280000   21.1860000  
O 23.7460000   20.9980000   16.8710000  
O 21.4970000   21.1110000   18.5020000  
H 22.4780000   16.7940000   21.5320000  
H 23.4300000   15.2180000   22.1320000  
H 26.2390000   17.2190000   19.3510000  
H 22.9390000   21.5330000   16.8130000  
H 21.0380000   21.2600000   19.3640000  
H 25.5270000   19.1390000   17.5740000  
