76
011 
C 19.0620000   14.8270000   28.2150000  
C 20.3500000   15.4400000   28.5400000  
C 20.7980000   16.5220000   27.9280000  
C 20.1910000   17.0400000   26.8170000  
C 19.0310000   16.4760000   26.2810000  
C 18.4460000   15.2850000   26.8580000  
C 21.9380000   17.3760000   28.1900000  
C 22.0010000   18.3200000   27.1960000  
N 20.9160000   18.1360000   26.3230000  
O 24.1610000   19.3140000   27.7720000  
C 23.0470000   19.3050000   27.0180000  
O 22.9970000   20.0940000   26.0820000  
O 17.4330000   14.6830000   26.4390000  
O 18.4390000   14.0890000   29.0240000  
H 20.8540000   15.0570000   29.4140000  
H 22.6020000   17.2170000   28.9830000  
H 24.2620000   18.5510000   28.3460000  
H 20.6600000   18.7230000   25.6300000  
C 18.5130000   17.0780000   25.0740000  
C 19.3140000   17.0390000   23.9290000  
C 18.9480000   17.6680000   22.7310000  
C 17.6690000   18.2500000   22.5730000  
C 16.8500000   18.2510000   23.7370000  
C 17.2590000   17.6860000   24.9720000  
C 20.6160000   16.4660000   23.6520000  
C 20.9100000   16.6950000   22.2960000  
N 19.8690000   17.4270000   21.7510000  
O 22.9020000   15.5790000   22.3630000  
C 22.1550000   16.3800000   21.6080000  
O 22.4780000   16.8310000   20.5170000  
O 15.6780000   18.9010000   23.7350000  
O 16.5130000   17.8170000   26.1490000  
H 21.2660000   16.0200000   24.3600000  
H 22.3180000   15.3570000   23.1020000  
H 19.9550000   17.9540000   20.8500000  
H 15.7140000   19.6090000   23.0550000  
H 15.8380000   18.5380000   25.9400000  
C 17.2090000   18.7810000   21.2150000  
C 15.9910000   18.1870000   20.7310000  
C 15.6220000   18.5740000   19.4840000  
C 16.3040000   19.3740000   18.6070000  
C 17.5200000   19.9690000   19.0720000  
C 17.9400000   19.6450000   20.3660000  
C 14.9580000   17.3600000   21.2260000  
C 13.9180000   17.2800000   20.2980000  
N 14.3510000   18.0150000   19.1610000  
O 12.5530000   15.7320000   21.5160000  
C 12.7840000   16.3430000   20.3350000  
O 12.1360000   16.0350000   19.3530000  
O 18.3380000   20.7680000   18.2690000  
O 19.1860000   20.0910000   20.7820000  
H 14.9770000   16.7220000   22.1060000  
H 13.2630000   16.0090000   22.0820000  
H 13.9070000   18.0620000   18.2600000  
H 17.7870000   20.8620000   17.4330000  
H 19.3450000   20.8460000   20.2200000  
C 15.6380000   19.7630000   17.3510000  
C 15.3830000   21.1180000   17.0860000  
C 14.8820000   21.4270000   15.8310000  
C 14.7990000   20.5310000   14.7370000  
C 15.2020000   19.2710000   15.0340000  
C 15.5770000   18.8670000   16.2990000  
C 15.3740000   22.3330000   17.8470000  
C 14.9750000   23.3780000   17.0010000  
N 14.6420000   22.7900000   15.7420000  
O 15.0070000   25.1420000   18.6110000  
C 14.9680000   24.8920000   17.2750000  
O 14.8680000   25.7490000   16.4250000  
O 15.2080000   18.2750000   14.0160000  
O 16.0140000   17.5370000   16.4470000  
H 15.9320000   22.5300000   18.8350000  
H 14.8450000   24.3150000   19.0170000  
H 14.3660000   23.3410000   14.9520000  
H 15.6590000   17.4520000   14.3630000  
H 16.4650000   17.4140000   17.2650000  
H 14.4780000   20.8380000   13.7380000  
