76
011 
C 14.8180000   22.6020000   27.6610000  
C 14.5060000   21.4580000   28.5350000  
C 14.8520000   20.1710000   28.2360000  
C 15.6030000   19.9500000   27.1270000  
C 15.9530000   20.8730000   26.1840000  
C 15.5530000   22.2760000   26.2970000  
C 14.8010000   18.9490000   28.9720000  
C 15.4050000   17.9500000   28.2080000  
N 15.8760000   18.5900000   27.0630000  
O 15.3110000   16.2530000   29.8330000  
C 15.6910000   16.5940000   28.5840000  
O 16.1900000   15.6910000   27.9220000  
O 15.8300000   23.1250000   25.4160000  
O 14.5490000   23.7380000   28.0540000  
H 14.0890000   21.7350000   29.5120000  
H 14.2970000   18.7900000   29.9620000  
H 15.1440000   17.1390000   30.2290000  
H 16.3860000   18.1920000   26.2820000  
C 16.5760000   20.3220000   24.9520000  
C 15.7330000   20.0620000   23.8310000  
C 16.2270000   19.4950000   22.7450000  
C 17.5010000   19.0680000   22.4990000  
C 18.3800000   19.3050000   23.6080000  
C 17.9220000   19.8670000   24.8520000  
C 14.3390000   20.3880000   23.6780000  
C 14.1110000   20.0880000   22.3480000  
N 15.2110000   19.4040000   21.7880000  
O 11.7370000   20.6620000   22.3100000  
C 12.8650000   20.3510000   21.5820000  
O 12.7980000   20.2800000   20.3380000  
O 19.6580000   18.8740000   23.5960000  
O 18.7740000   19.9380000   25.9040000  
H 13.8170000   21.1540000   24.1830000  
H 12.0970000   20.8270000   23.2350000  
H 15.4210000   19.0330000   20.8700000  
H 20.0020000   18.6890000   22.7110000  
H 19.6500000   20.0990000   25.4320000  
C 18.0040000   18.4900000   21.2080000  
C 19.1730000   19.0560000   20.5670000  
C 19.6220000   18.5140000   19.3880000  
C 19.0640000   17.4420000   18.7030000  
C 17.9520000   16.8420000   19.3360000  
C 17.3910000   17.3810000   20.5240000  
C 19.8700000   20.3680000   20.6730000  
C 20.7980000   20.3710000   19.6060000  
N 20.7120000   19.1490000   18.9280000  
O 21.8980000   22.5270000   19.9880000  
C 21.7700000   21.3950000   19.2740000  
O 22.4190000   21.1550000   18.2870000  
O 17.2560000   15.9370000   18.6010000  
O 16.2700000   16.8500000   21.0580000  
H 19.8400000   21.1160000   21.4970000  
H 21.2160000   22.4070000   20.6470000  
H 21.3690000   18.7610000   18.3490000  
H 17.6470000   15.9140000   17.6880000  
H 15.8810000   16.2390000   20.4100000  
C 19.4430000   17.0930000   17.3700000  
C 19.9810000   15.8120000   17.0290000  
C 20.2150000   15.4520000   15.7160000  
C 19.9580000   16.2920000   14.6470000  
C 19.5600000   17.5850000   14.9080000  
C 19.3340000   18.0050000   16.2720000  
C 20.3610000   14.7510000   17.8760000  
C 20.5290000   13.6190000   17.0680000  
N 20.5930000   14.1060000   15.7300000  
O 20.6390000   11.9680000   18.7670000  
C 20.7350000   12.2990000   17.4260000  
O 20.9330000   11.3920000   16.5830000  
O 19.4420000   18.4700000   13.8330000  
O 19.0170000   19.3560000   16.4230000  
H 20.2100000   14.7080000   18.9420000  
H 20.1130000   12.7530000   19.1470000  
H 20.5870000   13.5890000   14.8400000  
H 19.1010000   19.3000000   14.2070000  
H 18.3800000   19.4420000   17.1540000  
H 20.1690000   15.9910000   13.6010000  
