76
011 
C 19.5850000   17.3860000   29.0030000  
C 18.3280000   17.9740000   29.5060000  
C 17.4430000   18.6070000   28.7120000  
C 17.6530000   18.7400000   27.3450000  
C 18.7000000   18.1560000   26.6700000  
C 19.8160000   17.5000000   27.3650000  
C 16.1460000   19.1750000   28.9470000  
C 15.6430000   19.6790000   27.7360000  
N 16.5700000   19.3490000   26.7190000  
O 13.5480000   20.4100000   28.5520000  
C 14.3300000   20.3740000   27.5180000  
O 14.0040000   20.8580000   26.4780000  
O 20.7850000   17.0990000   26.7870000  
O 20.3330000   16.7500000   29.6890000  
H 18.1020000   17.8490000   30.5400000  
H 15.7420000   19.1940000   29.8860000  
H 14.0730000   20.2910000   29.3260000  
H 16.4520000   19.5400000   25.7590000  
C 18.5650000   18.3610000   25.2430000  
C 18.8420000   19.6070000   24.6650000  
C 18.7300000   19.7580000   23.3090000  
C 18.2310000   18.7230000   22.4490000  
C 17.9630000   17.4620000   23.0540000  
C 18.0270000   17.3190000   24.4280000  
C 19.4180000   20.8200000   25.1810000  
C 19.6260000   21.6400000   24.0760000  
N 19.3070000   20.9510000   22.9440000  
O 20.5670000   23.3670000   25.2570000  
C 20.3360000   22.9180000   24.0620000  
O 20.6150000   23.5600000   23.0430000  
O 17.4910000   16.4730000   22.2560000  
O 17.6820000   16.1540000   24.9960000  
H 19.8160000   21.0310000   26.1760000  
H 20.1090000   22.7650000   25.8610000  
H 19.4610000   21.2600000   21.9890000  
H 17.4980000   16.7080000   21.2980000  
H 17.2480000   15.6480000   24.3640000  
C 18.1760000   18.8320000   20.9850000  
C 18.8800000   17.8870000   20.2210000  
C 18.6520000   17.7870000   18.8350000  
C 17.6900000   18.5590000   18.1240000  
C 17.0060000   19.5200000   18.9140000  
C 17.2550000   19.6540000   20.3050000  
C 19.9320000   16.8750000   20.4940000  
C 20.1050000   16.1890000   19.2710000  
N 19.3110000   16.6930000   18.2690000  
O 21.8210000   14.7170000   20.1170000  
C 21.0150000   15.0340000   18.9930000  
O 21.0810000   14.4540000   17.9410000  
O 16.1720000   20.3940000   18.2620000  
O 16.4510000   20.4970000   21.0090000  
H 20.3680000   16.6690000   21.4660000  
H 21.7420000   15.5260000   20.6970000  
H 19.1430000   16.3060000   17.3670000  
H 16.1470000   20.1000000   17.2920000  
H 15.7960000   20.9250000   20.3810000  
C 17.3600000   18.3560000   16.7290000  
C 16.0250000   17.9740000   16.3440000  
C 15.6280000   17.7770000   15.0600000  
C 16.5530000   17.9960000   13.9720000  
C 17.8440000   18.4610000   14.3270000  
C 18.2540000   18.6590000   15.6730000  
C 14.8750000   17.6470000   17.1470000  
C 13.8150000   17.2950000   16.2840000  
N 14.3230000   17.3860000   14.9800000  
O 12.1520000   17.1310000   17.9540000  
C 12.4180000   17.1580000   16.6420000  
O 11.5820000   17.0510000   15.8170000  
O 18.7660000   18.5550000   13.3530000  
O 19.4230000   19.1230000   15.9900000  
H 14.7500000   17.6760000   18.2220000  
H 13.1120000   17.0820000   18.2370000  
H 13.6630000   17.3220000   14.1790000  
H 19.5990000   18.8980000   13.7700000  
H 19.3770000   19.3930000   16.9170000  
H 16.2740000   17.8600000   12.9000000  
