76
011 
C 21.7710000   13.5160000   25.8990000  
C 21.5610000   12.2410000   25.0830000  
C 20.8650000   12.2940000   23.9200000  
C 20.2790000   13.4390000   23.3720000  
C 20.1920000   14.5970000   24.1120000  
C 20.9020000   14.7700000   25.4390000  
C 20.6120000   11.2550000   22.9940000  
C 19.8960000   11.7860000   21.9190000  
N 19.7060000   13.1410000   22.2080000  
O 19.6780000    9.8130000   20.6760000  
C 19.4930000   11.1520000   20.6670000  
O 19.0240000   11.6850000   19.6800000  
O 20.8860000   15.8150000   26.1680000  
O 22.5350000   13.5840000   26.8500000  
H 22.0240000   11.3450000   25.4190000  
H 20.9270000   10.1890000   23.0930000  
H 19.8540000    9.6750000   21.5940000  
H 19.2680000   13.8200000   21.5690000  
C 19.3770000   15.6470000   23.3680000  
C 18.0240000   15.5230000   23.1290000  
C 17.3890000   16.4460000   22.3500000  
C 18.0070000   17.6510000   21.8300000  
C 19.4700000   17.6930000   21.9360000  
C 20.0530000   16.7220000   22.7300000  
C 16.9690000   14.8140000   23.8530000  
C 15.7800000   15.3540000   23.4610000  
N 16.0140000   16.3900000   22.5660000  
O 14.3530000   14.2320000   25.0470000  
C 14.4490000   15.0040000   23.8820000  
O 13.4300000   15.5160000   23.3390000  
O 20.1190000   18.7580000   21.4080000  
O 21.4300000   16.7250000   22.9790000  
H 17.0800000   14.1520000   24.6460000  
H 15.2240000   13.8730000   25.2230000  
H 15.3400000   17.0340000   22.1410000  
H 19.4750000   19.2620000   20.9220000  
H 21.8470000   17.5980000   22.7770000  
C 17.2280000   18.8050000   21.2550000  
C 17.3480000   20.0760000   21.8690000  
C 16.7360000   21.1610000   21.2590000  
C 15.9490000   21.1150000   20.1160000  
C 15.8810000   19.8430000   19.4910000  
C 16.4840000   18.7250000   20.0180000  
C 18.0270000   20.6420000   23.0400000  
C 18.0170000   22.0560000   22.8780000  
N 17.1380000   22.3560000   21.8130000  
O 19.3170000   22.5440000   24.8490000  
C 18.6990000   23.0720000   23.7630000  
O 18.7410000   24.2880000   23.5590000  
O 15.1110000   19.6190000   18.3310000  
O 16.2510000   17.5320000   19.5360000  
H 18.6130000   20.1150000   23.7780000  
H 19.0770000   21.6140000   24.8340000  
H 16.7150000   23.2200000   21.6400000  
H 14.9320000   20.3980000   17.8160000  
H 15.8340000   17.7460000   18.6710000  
C 15.2300000   22.3500000   19.6710000  
C 15.8280000   23.5480000   19.1670000  
C 15.0600000   24.6120000   18.9370000  
C 13.6490000   24.6260000   19.0720000  
C 12.9720000   23.4470000   19.5140000  
C 13.8350000   22.3270000   19.8830000  
C 17.1890000   23.9440000   18.8450000  
C 17.1130000   25.2190000   18.3280000  
N 15.7980000   25.6550000   18.3780000  
O 19.4960000   25.3180000   18.1370000  
C 18.3280000   25.9130000   17.7900000  
O 18.3690000   26.9740000   17.2260000  
O 11.5930000   23.4400000   19.4440000  
O 13.1590000   21.2840000   20.4040000  
H 18.0520000   23.1950000   18.8440000  
H 19.0480000   24.6640000   18.7980000  
H 15.3360000   26.5200000   18.1930000  
H 11.2420000   22.6450000   19.7820000  
H 13.8020000   20.5570000   20.4220000  
H 13.0340000   25.3790000   18.6940000  
