76
011 
C 21.4970000   12.6130000   24.4570000  
C 20.8770000   11.5260000   23.7000000  
C 20.0160000   11.8560000   22.6320000  
C 19.5590000   13.1250000   22.3430000  
C 20.0030000   14.2030000   23.0550000  
C 21.0820000   14.0700000   24.0440000  
C 19.3470000   10.9290000   21.7960000  
C 18.5080000   11.6890000   21.0010000  
N 18.5670000   13.0050000   21.4260000  
O 17.8990000    9.9510000   19.5910000  
C 17.7340000   11.2520000   19.8810000  
O 16.9830000   11.9460000   19.2570000  
O 21.7100000   15.0110000   24.5330000  
O 22.2860000   12.4150000   25.3900000  
H 21.0750000   10.5280000   23.9880000  
H 19.4510000    9.8030000   21.7760000  
H 18.3920000    9.5750000   20.3050000  
H 17.9470000   13.7000000   21.1300000  
C 19.3760000   15.4560000   22.7280000  
C 18.1490000   15.8070000   23.2080000  
C 17.5290000   16.9260000   22.7810000  
C 18.0600000   17.8660000   21.9050000  
C 19.4120000   17.6350000   21.5110000  
C 19.9920000   16.3910000   21.8760000  
C 17.3160000   15.1320000   24.1710000  
C 16.2810000   15.9590000   24.4930000  
N 16.4090000   17.1050000   23.6170000  
O 15.1500000   14.3960000   25.9130000  
C 15.1840000   15.6980000   25.4530000  
O 14.3720000   16.5480000   25.7390000  
O 20.0390000   18.5890000   20.6740000  
O 21.2390000   16.1140000   21.3970000  
H 17.6290000   14.2550000   24.7090000  
H 15.7900000   13.9870000   25.3340000  
H 15.7280000   17.8640000   23.6130000  
H 19.4600000   19.3420000   20.5170000  
H 21.5320000   16.7660000   20.7410000  
C 17.2570000   19.0750000   21.6660000  
C 17.5330000   20.3440000   22.2110000  
C 16.8720000   21.4150000   21.8180000  
C 15.7430000   21.3940000   20.9690000  
C 15.3600000   20.1640000   20.4610000  
C 16.1020000   19.0220000   20.8370000  
C 18.6010000   20.8020000   23.0990000  
C 18.4910000   22.1940000   23.1520000  
N 17.4610000   22.5770000   22.3240000  
O 20.3920000   22.5630000   24.4980000  
C 19.3270000   23.1260000   23.9230000  
O 18.9860000   24.2760000   24.0570000  
O 14.2770000   20.0810000   19.6530000  
O 15.7600000   17.8820000   20.1380000  
H 19.2830000   20.2020000   23.6950000  
H 20.5000000   21.6260000   24.2380000  
H 17.0710000   23.4660000   22.2700000  
H 13.9380000   20.9540000   19.5120000  
H 15.1650000   18.1040000   19.3710000  
C 15.2520000   22.6630000   20.4200000  
C 16.0590000   23.5070000   19.5630000  
C 15.7620000   24.7990000   19.2260000  
C 14.4840000   25.3390000   19.6470000  
C 13.6540000   24.5070000   20.4260000  
C 13.9990000   23.2290000   20.8280000  
C 17.2320000   23.2130000   18.9480000  
C 17.6160000   24.3290000   18.1990000  
N 16.6330000   25.3220000   18.3330000  
O 19.8080000   23.5270000   17.6720000  
C 18.8880000   24.5430000   17.4800000  
O 19.0890000   25.5680000   16.8890000  
O 12.3990000   24.9830000   20.7200000  
O 13.1240000   22.5120000   21.5690000  
H 17.8260000   22.3520000   19.0220000  
H 19.3160000   22.6330000   17.9170000  
H 16.7360000   26.3210000   18.0680000  
H 12.1080000   24.3720000   21.4080000  
H 13.5990000   21.7400000   21.9500000  
H 14.0590000   26.1460000   19.1800000  
