76
011 
C 15.8060000   11.1770000   22.0860000  
C 16.6400000   10.6550000   23.2550000  
C 17.3890000   11.5310000   24.0160000  
C 17.3730000   12.9040000   23.8770000  
C 16.6620000   13.5710000   22.8660000  
C 15.7540000   12.7890000   21.9470000  
C 18.3250000   11.2920000   25.0140000  
C 18.8370000   12.4890000   25.4950000  
N 18.2860000   13.5070000   24.7160000  
O 20.3510000   11.7520000   27.1490000  
C 19.7780000   12.7820000   26.5580000  
O 20.0450000   13.9450000   26.8880000  
O 15.0750000   13.2890000   21.0510000  
O 15.1150000   10.4440000   21.3740000  
H 16.6350000    9.5270000   23.3780000  
H 18.5130000   10.2690000   25.4170000  
H 20.1450000   10.9090000   26.6670000  
H 18.4700000   14.5450000   24.9150000  
C 16.8650000   14.9890000   22.6680000  
C 18.1110000   15.5000000   22.2640000  
C 18.3130000   16.8540000   22.0420000  
C 17.3530000   17.9040000   22.2960000  
C 16.1220000   17.4000000   22.7480000  
C 15.8730000   15.9930000   22.8610000  
C 19.3610000   14.8330000   21.9340000  
C 20.2790000   15.8390000   21.5710000  
N 19.6080000   17.1050000   21.5910000  
O 22.1670000   14.4190000   21.2020000  
C 21.7050000   15.6770000   21.2100000  
O 22.4490000   16.5740000   20.9760000  
O 15.1240000   18.2610000   23.1530000  
O 14.7110000   15.5310000   23.3120000  
H 19.6510000   13.8190000   21.9030000  
H 21.3190000   13.9680000   21.4960000  
H 19.8520000   18.0330000   21.1490000  
H 15.5900000   18.9320000   23.5870000  
H 14.3630000   16.3190000   23.7790000  
C 17.4280000   19.3250000   21.9650000  
C 17.6940000   19.6700000   20.6440000  
C 17.9270000   20.9620000   20.3340000  
C 17.8930000   22.0120000   21.2740000  
C 17.5300000   21.7280000   22.6300000  
C 17.2270000   20.3820000   22.9440000  
C 17.7090000   18.9980000   19.3560000  
C 17.8930000   19.9510000   18.3450000  
N 17.9790000   21.2300000   18.9300000  
O 17.6570000   18.5930000   16.4520000  
C 17.8960000   19.8220000   16.8460000  
O 18.1410000   20.7060000   16.0120000  
O 17.5630000   22.7140000   23.5990000  
O 16.9540000   20.0580000   24.2510000  
H 17.7040000   17.9590000   19.1910000  
H 17.6430000   17.9380000   17.2340000  
H 17.9370000   22.0630000   18.4310000  
H 18.0860000   23.4370000   23.2820000  
H 17.1620000   20.9150000   24.6600000  
C 18.2010000   23.4320000   20.9020000  
C 17.1090000   24.3230000   20.7610000  
C 17.2780000   25.5950000   20.3060000  
C 18.5190000   26.0770000   19.9890000  
C 19.6750000   25.2080000   20.1070000  
C 19.5140000   23.8760000   20.5660000  
C 15.6740000   24.1610000   20.8550000  
C 15.0960000   25.3730000   20.5530000  
N 16.0930000   26.2190000   20.0590000  
O 12.9680000   24.8990000   21.4810000  
C 13.6650000   25.8160000   20.7930000  
O 13.1810000   26.8600000   20.3650000  
O 20.8900000   25.6400000   19.6800000  
O 20.6180000   23.0830000   20.5720000  
H 15.1550000   23.3500000   21.1840000  
H 13.4500000   24.0770000   21.4330000  
H 15.9590000   27.1520000   19.7880000  
H 21.4900000   24.8610000   19.5720000  
H 20.4210000   22.2320000   20.9630000  
H 18.7160000   26.9980000   19.4630000  
