76
011 
C 16.8360000   18.9950000   29.4800000  
C 18.1220000   19.7790000   29.7110000  
C 18.9700000   20.0500000   28.7430000  
C 18.7120000   19.7130000   27.3750000  
C 17.5420000   19.1040000   26.9180000  
C 16.5230000   18.6210000   27.9360000  
C 20.2730000   20.6510000   28.6900000  
C 20.6960000   20.7510000   27.3760000  
N 19.7310000   20.1630000   26.5990000  
O 22.7800000   21.7850000   27.7680000  
C 22.0260000   21.1940000   26.8390000  
O 22.3160000   21.0470000   25.6230000  
O 15.5120000   17.9490000   27.6730000  
O 16.1990000   18.6330000   30.4550000  
H 18.3000000   20.1110000   30.7440000  
H 20.7170000   20.9070000   29.6060000  
H 22.4890000   21.6100000   28.6590000  
H 19.6860000   20.2090000   25.6290000  
C 17.4540000   18.8780000   25.4760000  
C 17.7900000   17.6930000   24.8020000  
C 17.7950000   17.6890000   23.4520000  
C 17.4390000   18.7190000   22.6110000  
C 17.0570000   19.9400000   23.2690000  
C 17.0560000   19.9970000   24.6440000  
C 18.2580000   16.4210000   25.2490000  
C 18.2830000   15.6070000   24.1120000  
N 18.0550000   16.3770000   22.9820000  
O 18.9990000   13.6890000   25.3960000  
C 18.6720000   14.1870000   24.1690000  
O 18.7520000   13.4160000   23.2720000  
O 16.5840000   20.9940000   22.6100000  
O 16.5920000   21.0640000   25.3200000  
H 18.5020000   16.1790000   26.2340000  
H 19.1010000   14.4360000   26.0830000  
H 18.0210000   16.0870000   22.0160000  
H 16.8740000   20.7190000   21.7410000  
H 16.1340000   21.6870000   24.7290000  
C 17.4220000   18.5320000   21.0910000  
C 16.1910000   18.2610000   20.4900000  
C 16.1510000   17.9510000   19.2160000  
C 17.2150000   17.9590000   18.3150000  
C 18.4950000   18.1340000   18.9030000  
C 18.5760000   18.5030000   20.2750000  
C 14.8600000   18.2970000   20.9600000  
C 13.9960000   18.1080000   19.8870000  
N 14.8200000   18.0040000   18.7600000  
O 11.9270000   18.0640000   20.9690000  
C 12.5680000   17.8160000   19.8660000  
O 11.9760000   17.3210000   18.9230000  
O 19.6930000   18.0010000   18.1350000  
O 19.8140000   18.7710000   20.8920000  
H 14.6220000   18.3420000   22.0090000  
H 12.6190000   18.4510000   21.4950000  
H 14.5100000   18.0460000   17.7700000  
H 19.4300000   18.0100000   17.2250000  
H 20.4850000   18.5480000   20.2150000  
C 17.1010000   17.7470000   16.8520000  
C 17.6510000   18.6980000   15.9520000  
C 17.7510000   18.3990000   14.5990000  
C 17.2860000   17.2250000   14.0270000  
C 16.7620000   16.2510000   14.9020000  
C 16.7120000   16.4600000   16.2920000  
C 18.2940000   20.0210000   16.2020000  
C 18.7600000   20.3400000   14.9070000  
N 18.3680000   19.4010000   13.9590000  
O 19.8540000   22.3270000   15.6400000  
C 19.5830000   21.4860000   14.5990000  
O 20.0520000   21.5980000   13.4740000  
O 16.4580000   15.0190000   14.4180000  
O 16.1100000   15.5150000   17.0200000  
H 18.1850000   20.6980000   17.0710000  
H 19.4940000   21.9350000   16.4280000  
H 18.6460000   19.4680000   12.9400000  
H 16.2420000   14.4810000   15.1660000  
H 16.1340000   15.7680000   17.9400000  
H 17.3270000   16.9940000   12.9930000  
