76
011 
C 19.4510000   15.1080000   28.4240000  
C 20.8050000   15.6590000   28.6080000  
C 21.3350000   16.5070000   27.6720000  
C 20.6260000   16.8670000   26.5330000  
C 19.3410000   16.4880000   26.2410000  
C 18.6270000   15.4930000   27.0890000  
C 22.6340000   17.1010000   27.5890000  
C 22.6620000   17.7570000   26.3470000  
N 21.4570000   17.5490000   25.7080000  
O 24.8040000   18.7480000   26.5830000  
C 23.7050000   18.6090000   25.8220000  
O 23.6270000   19.2820000   24.8150000  
O 17.4370000   15.1090000   26.9650000  
O 19.0260000   14.2840000   29.2230000  
H 21.3570000   15.4820000   29.5020000  
H 23.4220000   17.1810000   28.2750000  
H 24.5410000   18.5350000   27.5050000  
H 21.1170000   18.1100000   24.9210000  
C 18.8730000   16.9010000   24.8880000  
C 19.2490000   16.2670000   23.6740000  
C 18.7490000   16.7800000   22.4680000  
C 17.9050000   17.9300000   22.3960000  
C 17.6900000   18.6550000   23.5980000  
C 18.1420000   18.0920000   24.7930000  
C 19.8030000   14.9900000   23.3200000  
C 19.6170000   14.7470000   21.9280000  
N 18.9660000   15.8980000   21.3930000  
O 20.6070000   12.5110000   21.7630000  
C 19.8480000   13.5150000   21.1520000  
O 19.3250000   13.2670000   20.0600000  
O 17.1340000   19.8850000   23.6010000  
O 18.0210000   18.7470000   25.9670000  
H 20.3860000   14.3780000   23.9840000  
H 20.9710000   12.9750000   22.5300000  
H 18.5800000   16.0240000   20.5050000  
H 17.1310000   20.1170000   22.6140000  
H 17.5270000   19.5570000   25.7940000  
C 17.3500000   18.5550000   21.1730000  
C 15.9910000   18.5050000   20.8290000  
C 15.6380000   19.0510000   19.6260000  
C 16.4810000   19.7330000   18.7260000  
C 17.8000000   19.9150000   19.0920000  
C 18.2580000   19.1300000   20.2400000  
C 14.7830000   17.9750000   21.4390000  
C 13.7470000   18.2130000   20.5040000  
N 14.2830000   18.9110000   19.3860000  
O 11.9830000   17.2590000   21.8170000  
C 12.3150000   17.8870000   20.6620000  
O 11.4690000   18.2610000   19.8900000  
O 18.6410000   20.6380000   18.2910000  
O 19.5810000   19.0670000   20.4100000  
H 14.7520000   17.5550000   22.4220000  
H 12.7030000   17.2490000   22.4440000  
H 13.8560000   19.0870000   18.4970000  
H 18.0160000   21.0050000   17.6760000  
H 19.9140000   19.4800000   19.6080000  
C 15.8650000   20.3710000   17.5180000  
C 15.6760000   21.8090000   17.3900000  
C 14.9710000   22.2520000   16.3300000  
C 14.5300000   21.4350000   15.2860000  
C 14.8110000   20.0850000   15.2840000  
C 15.4090000   19.5430000   16.4800000  
C 15.9000000   22.8710000   18.3130000  
C 15.3350000   24.0260000   17.7100000  
N 14.8560000   23.5930000   16.4590000  
O 15.5860000   25.4180000   19.5760000  
C 15.2030000   25.3050000   18.2880000  
O 14.6820000   26.2690000   17.7190000  
O 14.3800000   19.3740000   14.2440000  
O 15.4980000   18.1080000   16.6110000  
H 16.2170000   22.8000000   19.3990000  
H 16.0040000   24.5790000   19.8550000  
H 14.5050000   24.2190000   15.7170000  
H 14.7550000   18.4510000   14.2980000  
H 15.6460000   18.0560000   17.5980000  
H 13.9960000   21.8560000   14.4220000  
