76
011 
C 12.4840000   18.9380000   27.2400000  
C 11.2440000   19.0500000   26.4330000  
C 11.2950000   19.1550000   25.1100000  
C 12.4840000   19.1410000   24.3630000  
C 13.7290000   18.9950000   24.9550000  
C 13.8320000   18.9060000   26.4390000  
C 10.2400000   19.1820000   24.1620000  
C 10.7790000   19.0840000   22.8490000  
N 12.1820000   19.0820000   23.0150000  
O  8.7620000   18.7180000   21.5600000  
C 10.0770000   18.9020000   21.5670000  
O 10.6740000   18.9250000   20.5110000  
O 14.8920000   18.7790000   27.0440000  
O 12.4940000   18.9530000   28.4450000  
H 10.2720000   19.0960000   27.0000000  
H  9.1520000   19.1650000   24.4440000  
H  8.5710000   18.8510000   22.4870000  
H 12.8720000   18.8780000   22.2850000  
C 14.8380000   18.9010000   23.9640000  
C 15.6490000   20.0270000   23.8190000  
C 16.6540000   20.1250000   22.8870000  
C 17.0130000   19.0410000   22.1160000  
C 16.2440000   17.8370000   22.2540000  
C 15.1930000   17.7320000   23.2270000  
C 15.6720000   21.3320000   24.5350000  
C 16.8460000   21.9100000   24.0310000  
N 17.4900000   21.1400000   23.1010000  
O 16.4850000   23.8870000   25.3920000  
C 17.3730000   23.2340000   24.5600000  
O 18.4900000   23.6990000   24.2430000  
O 16.5020000   16.6910000   21.5900000  
O 14.5350000   16.5660000   23.5070000  
H 15.0510000   21.6880000   25.3030000  
H 15.6650000   23.3880000   25.2850000  
H 18.4380000   21.2590000   22.7730000  
H 17.4600000   16.6500000   21.4410000  
H 14.6600000   16.1610000   22.6410000  
C 18.2700000   18.9220000   21.3630000  
C 19.3550000   18.0820000   21.7790000  
C 20.4260000   17.9340000   20.9690000  
C 20.7100000   18.6700000   19.7990000  
C 19.7320000   19.6750000   19.3970000  
C 18.5570000   19.7790000   20.2470000  
C 19.3780000   16.9400000   22.7710000  
C 20.6050000   16.2950000   22.4500000  
N 21.2050000   16.8930000   21.3550000  
O 20.4230000   14.7150000   24.3220000  
C 21.1730000   15.1160000   23.2090000  
O 22.2360000   14.5220000   22.9890000  
O 19.8870000   20.4260000   18.2040000  
O 17.5730000   20.6510000   19.7380000  
H 18.6840000   16.7970000   23.5920000  
H 19.7760000   15.3990000   24.2340000  
H 22.0610000   16.5660000   20.9440000  
H 20.7500000   20.1680000   17.8700000  
H 17.8820000   20.9480000   18.8490000  
C 21.9340000   18.5060000   18.9620000  
C 22.0600000   17.4650000   18.0900000  
C 23.1380000   17.2580000   17.3280000  
C 24.1100000   18.1970000   17.1760000  
C 24.0650000   19.3400000   18.0590000  
C 22.9690000   19.4710000   19.0190000  
C 21.2360000   16.3010000   17.7980000  
C 21.8570000   15.5430000   16.8940000  
N 23.0830000   16.1080000   16.5630000  
O 20.0010000   14.0330000   16.7700000  
C 21.2450000   14.3130000   16.2920000  
O 21.8690000   13.6960000   15.4420000  
O 25.1040000   20.2380000   18.0070000  
O 22.9200000   20.5610000   19.9190000  
H 20.2500000   16.0760000   18.1680000  
H 19.8020000   14.8820000   17.2570000  
H 23.6320000   15.9350000   15.7690000  
H 25.0850000   20.9640000   18.7010000  
H 22.0090000   20.6290000   20.2470000  
H 24.9500000   18.0550000   16.4560000  
