76
011 
C 23.3470000   17.1270000   26.9690000  
C 22.7800000   15.7810000   27.4140000  
C 21.5760000   15.3060000   26.9770000  
C 20.8690000   16.0160000   26.0140000  
C 21.1620000   17.2500000   25.4610000  
C 22.4740000   17.8500000   25.8450000  
C 20.9290000   14.0740000   27.1470000  
C 19.7860000   14.0430000   26.3270000  
N 19.8120000   15.2160000   25.6450000  
O 18.8980000   11.8940000   26.9310000  
C 18.7360000   13.0540000   26.1850000  
O 17.7500000   13.2030000   25.5480000  
O 22.7870000   18.9700000   25.4460000  
O 24.4130000   17.6030000   27.3070000  
H 23.3230000   15.2180000   28.0610000  
H 21.3080000   13.2370000   27.7130000  
H 19.7320000   12.0510000   27.3550000  
H 19.2010000   15.4160000   24.9300000  
C 20.3280000   17.7000000   24.3710000  
C 19.1430000   18.3030000   24.6950000  
C 18.1400000   18.5670000   23.8120000  
C 18.2690000   18.3880000   22.4400000  
C 19.5920000   17.9370000   22.0220000  
C 20.5910000   17.6120000   22.9700000  
C 18.4440000   18.4130000   25.9770000  
C 17.1840000   18.9290000   25.8060000  
N 16.9420000   19.0110000   24.4180000  
O 16.7980000   19.1770000   28.2140000  
C 16.2500000   19.1800000   26.9710000  
O 15.0480000   19.3720000   26.8220000  
O 19.9790000   17.7640000   20.7220000  
O 21.8210000   17.1360000   22.5360000  
H 18.8650000   18.2130000   26.9320000  
H 17.7110000   19.2810000   27.9310000  
H 16.1010000   19.3980000   23.9460000  
H 19.2350000   18.1460000   20.1750000  
H 21.8450000   17.1680000   21.5620000  
C 17.1860000   18.7580000   21.4830000  
C 17.3940000   19.7240000   20.5240000  
C 16.4850000   20.1190000   19.5600000  
C 15.2120000   19.6050000   19.4510000  
C 14.9080000   18.5690000   20.4090000  
C 15.8880000   18.2020000   21.3730000  
C 18.5140000   20.6820000   20.3410000  
C 18.2670000   21.3520000   19.1360000  
N 16.9600000   21.0800000   18.7470000  
O 20.3060000   22.4170000   18.9400000  
C 19.0790000   22.3430000   18.3980000  
O 18.6230000   22.9650000   17.4790000  
O 13.7270000   18.0040000   20.2450000  
O 15.5560000   17.1300000   22.1910000  
H 19.3630000   20.9000000   20.9530000  
H 20.2340000   21.7300000   19.6300000  
H 16.4760000   21.5050000   17.9820000  
H 13.3380000   18.5290000   19.5140000  
H 14.6330000   16.9110000   22.0310000  
C 14.3010000   20.0530000   18.3750000  
C 14.5380000   19.8620000   17.0090000  
C 13.6310000   20.2980000   16.0080000  
C 12.5990000   21.1600000   16.3020000  
C 12.3100000   21.3620000   17.6230000  
C 13.0990000   20.8020000   18.6620000  
C 15.6210000   19.2440000   16.2930000  
C 15.3580000   19.3340000   14.9200000  
N 14.1320000   19.9730000   14.7680000  
O 17.3750000   18.1390000   14.2340000  
C 16.2260000   18.8200000   13.8620000  
O 15.8800000   18.8980000   12.6920000  
O 11.3210000   22.2730000   17.9040000  
O 12.8140000   21.0680000   19.9030000  
H 16.5600000   18.7980000   16.7320000  
H 17.5110000   18.3570000   15.1430000  
H 13.7820000   20.1110000   13.8090000  
H 10.8740000   21.9700000   18.7360000  
H 13.6590000   20.8770000   20.3340000  
H 11.9310000   21.4950000   15.5180000  
