76
011 
C 14.4380000   18.8080000   28.5330000  
C 15.0230000   19.9320000   29.2110000  
C 15.9740000   20.7620000   28.5840000  
C 16.4240000   20.4800000   27.2620000  
C 15.9470000   19.4550000   26.5180000  
C 14.8760000   18.5200000   27.0460000  
C 16.7490000   21.8580000   28.9660000  
C 17.6100000   22.2030000   27.9150000  
N 17.3330000   21.4140000   26.8280000  
O 18.7830000   24.0280000   28.7860000  
C 18.7500000   23.1150000   27.8400000  
O 19.5250000   23.1430000   26.9470000  
O 14.4830000   17.5000000   26.4610000  
O 13.6380000   18.0990000   29.1020000  
H 14.6350000   20.2120000   30.1630000  
H 16.6920000   22.3060000   29.9500000  
H 17.8900000   24.1510000   29.1040000  
H 17.9220000   21.2850000   25.9730000  
C 16.4290000   19.3550000   25.1500000  
C 17.7620000   18.8870000   24.9180000  
C 18.2120000   18.6320000   23.6490000  
C 17.4200000   18.6330000   22.5030000  
C 16.0200000   18.8290000   22.7620000  
C 15.5410000   19.1550000   24.0260000  
C 18.8340000   18.7360000   25.8820000  
C 19.9420000   18.3460000   25.1420000  
N 19.5530000   18.3200000   23.7440000  
O 21.3870000   17.9800000   26.9990000  
C 21.3230000   18.0210000   25.6550000  
O 22.3030000   17.8720000   24.9400000  
O 15.1580000   18.6090000   21.7210000  
O 14.1900000   19.3560000   24.1250000  
H 18.8520000   18.9010000   26.9650000  
H 20.5560000   18.4710000   27.2640000  
H 20.1400000   18.0620000   22.9750000  
H 15.6460000   18.6380000   20.8790000  
H 13.9210000   19.2790000   23.1670000  
C 18.0100000   18.2870000   21.1240000  
C 17.5300000   17.2060000   20.3990000  
C 18.0300000   16.9780000   19.1250000  
C 18.9160000   17.8170000   18.4180000  
C 19.3760000   18.9390000   19.1200000  
C 18.9610000   19.1640000   20.4880000  
C 16.4830000   16.2500000   20.6870000  
C 16.4870000   15.4040000   19.5950000  
N 17.4010000   15.8530000   18.6300000  
O 14.5860000   14.1780000   20.3110000  
C 15.6190000   14.2780000   19.4780000  
O 15.7230000   13.3730000   18.6810000  
O 20.3510000   19.7480000   18.5780000  
O 19.3360000   20.2890000   21.1710000  
H 16.0240000   16.1050000   21.6660000  
H 14.7090000   14.9560000   20.8980000  
H 17.3990000   15.6000000   17.6330000  
H 20.6450000   19.3140000   17.7720000  
H 19.6940000   20.8550000   20.4970000  
C 19.2370000   17.4980000   16.9670000  
C 18.4620000   17.9170000   15.8360000  
C 18.9210000   17.8170000   14.5380000  
C 20.2000000   17.3360000   14.2430000  
C 21.0080000   16.8510000   15.3190000  
C 20.5120000   16.9000000   16.6180000  
C 17.0900000   18.3970000   15.7040000  
C 16.7860000   18.4960000   14.3570000  
N 17.9600000   18.2220000   13.6010000  
O 14.5520000   19.2730000   14.6360000  
C 15.5430000   18.9880000   13.7730000  
O 15.4050000   19.2180000   12.6180000  
O 22.1240000   16.1280000   15.0700000  
O 21.2780000   16.4240000   17.6070000  
H 16.3470000   18.5890000   16.5000000  
H 14.8640000   18.6860000   15.3530000  
H 17.9300000   18.1340000   12.6130000  
H 22.3670000   15.7360000   15.9660000  
H 20.9110000   16.6600000   18.4690000  
H 20.5340000   17.4010000   13.2250000  
