76
100 
C  9.4680000   15.1700000   24.8020000  
C  9.4160000   15.8630000   26.1790000  
C 10.3250000   16.7920000   26.4770000  
C 11.4000000   17.1730000   25.6540000  
C 11.6320000   16.6590000   24.4670000  
C 10.7320000   15.6080000   23.9350000  
C 10.5430000   17.3940000   27.7500000  
C 11.6870000   18.2170000   27.6290000  
N 12.2120000   18.0240000   26.3870000  
O 11.5210000   19.2760000   29.8140000  
C 12.2780000   19.0440000   28.7230000  
O 13.3840000   19.6280000   28.6490000  
O 10.9050000   15.0880000   22.8290000  
O  8.5880000   14.4170000   24.3620000  
H  8.5980000   15.5930000   26.9000000  
H 10.0510000   17.0860000   28.6720000  
H 10.6130000   18.9230000   29.6300000  
H 13.0130000   18.4110000   25.9050000  
C 12.8270000   17.1200000   23.7540000  
C 14.0100000   16.5540000   23.9750000  
C 15.1190000   16.8810000   23.1720000  
C 15.0720000   17.7490000   22.0840000  
C 13.8850000   18.4890000   21.9630000  
C 12.7840000   18.1770000   22.8170000  
C 14.3820000   15.5190000   24.9230000  
C 15.7420000   15.2720000   24.6370000  
N 16.1790000   16.0600000   23.5260000  
O 15.9950000   13.4700000   26.1050000  
C 16.6500000   14.2830000   25.2960000  
O 17.8690000   14.1940000   25.0760000  
O 13.7820000   19.5960000   21.1380000  
O 11.5950000   18.8160000   22.6590000  
H 13.7020000   15.0370000   25.6440000  
H 15.0440000   13.5110000   25.9890000  
H 17.0480000   16.1910000   23.0420000  
H 14.5950000   19.6840000   20.6220000  
H 11.6080000   19.7290000   22.2100000  
C 16.2360000   18.0620000   21.2730000  
C 16.7550000   17.1240000   20.3260000  
C 17.8420000   17.4410000   19.5390000  
C 18.5050000   18.6310000   19.5920000  
C 18.1230000   19.5620000   20.6190000  
C 17.0070000   19.2860000   21.4620000  
C 16.3230000   15.8250000   19.9200000  
C 17.1350000   15.4350000   18.8400000  
N 18.1000000   16.4620000   18.6590000  
O 16.0530000   13.2850000   18.2110000  
C 17.0600000   14.1990000   18.0250000  
O 17.8360000   13.9360000   17.1120000  
O 18.7460000   20.7460000   20.7440000  
O 16.6420000   20.2430000   22.3290000  
H 15.6630000   15.1820000   20.4790000  
H 15.4790000   13.7830000   18.7940000  
H 18.9860000   16.3680000   18.1380000  
H 19.0900000   20.9570000   19.8690000  
H 16.9740000   21.1370000   22.1330000  
C 19.7640000   18.8750000   18.9030000  
C 19.7610000   19.4900000   17.6560000  
C 20.9490000   19.7740000   16.9940000  
C 22.2210000   19.5810000   17.4800000  
C 22.2560000   18.9910000   18.8030000  
C 21.0350000   18.6060000   19.4910000  
C 18.6550000   19.6980000   16.7270000  
C 19.2050000   20.4610000   15.7270000  
N 20.6430000   20.4680000   15.8420000  
O 17.1090000   21.0380000   14.8050000  
C 18.4340000   21.1500000   14.6780000  
O 18.9520000   21.8100000   13.8170000  
O 23.4880000   18.9010000   19.4260000  
O 21.0550000   18.0820000   20.7940000  
H 17.5920000   19.4590000   16.8860000  
H 17.0260000   20.3120000   15.4430000  
H 21.2170000   21.0070000   15.2190000  
H 23.4540000   18.6120000   20.3400000  
H 20.0940000   18.0640000   21.0960000  
H 23.1180000   19.9980000   17.0360000  
