76
100 
C 10.3850000   12.7350000   23.8810000  
C 11.1270000   11.4270000   23.8260000  
C 12.5100000   11.4790000   23.5020000  
C 13.3070000   12.5870000   23.3610000  
C 12.7400000   13.8270000   23.2980000  
C 11.2140000   14.0090000   23.5120000  
C 13.2870000   10.3440000   23.0750000  
C 14.5670000   10.8550000   22.7980000  
N 14.5470000   12.1810000   22.9310000  
O 15.5080000    8.7740000   22.1500000  
C 15.7410000   10.0490000   22.3060000  
O 16.8520000   10.5020000   22.0840000  
O 10.6570000   15.0790000   23.4590000  
O  9.2200000   12.8020000   24.0850000  
H 10.5710000   10.4910000   23.9870000  
H 12.7990000    9.3060000   23.0070000  
H 14.5730000    8.7300000   22.4450000  
H 15.3490000   12.7790000   22.7060000  
C 13.6410000   14.9600000   23.0500000  
C 13.9600000   15.1950000   21.7200000  
C 14.9190000   16.1220000   21.4550000  
C 15.5410000   16.9680000   22.3470000  
C 15.2460000   16.7010000   23.7140000  
C 14.2610000   15.7020000   24.0410000  
C 13.6870000   14.5170000   20.4720000  
C 14.4840000   15.1420000   19.4640000  
N 15.2710000   16.1260000   20.1450000  
O 13.6510000   13.7710000   17.6780000  
C 14.4700000   14.7800000   18.0190000  
O 15.1120000   15.2900000   17.1370000  
O 15.8500000   17.4220000   24.7610000  
O 13.8650000   15.5290000   25.2880000  
H 12.9640000   13.7460000   20.2740000  
H 13.2720000   13.6700000   18.5890000  
H 15.8860000   16.7920000   19.7090000  
H 16.2810000   18.2750000   24.3750000  
H 14.3740000   16.1340000   25.8400000  
C 16.5050000   18.0800000   21.9510000  
C 15.9890000   19.2100000   21.2650000  
C 16.8160000   20.2520000   20.8740000  
C 18.1800000   20.3120000   21.0310000  
C 18.7670000   19.2380000   21.8080000  
C 17.9120000   18.1690000   22.2540000  
C 14.7510000   19.5010000   20.6150000  
C 14.8880000   20.7190000   19.8750000  
N 16.1760000   21.2080000   20.1100000  
O 12.6800000   20.4690000   19.0370000  
C 13.8330000   21.2250000   19.0320000  
O 13.8530000   22.2550000   18.4140000  
O 20.0640000   19.3630000   22.1810000  
O 18.5170000   17.2340000   23.0100000  
H 13.8010000   18.9860000   20.7050000  
H 13.0550000   19.6720000   19.4270000  
H 16.5440000   22.1070000   19.7170000  
H 20.4090000   20.2890000   22.0180000  
H 19.3680000   17.6050000   23.2280000  
C 18.9230000   21.5660000   20.6930000  
C 18.9130000   22.7290000   21.4840000  
C 19.7940000   23.7690000   21.2320000  
C 20.7530000   23.7250000   20.2340000  
C 20.6900000   22.6150000   19.3090000  
C 19.8880000   21.4990000   19.6120000  
C 18.2020000   23.0170000   22.6650000  
C 18.6080000   24.2660000   23.0930000  
N 19.6650000   24.6670000   22.2390000  
O 17.2790000   24.1880000   24.9220000  
C 18.2150000   24.9050000   24.3180000  
O 18.6760000   25.8850000   24.8760000  
O 21.6560000   22.5070000   18.2910000  
O 20.0350000   20.2600000   18.9940000  
H 17.4270000   22.4110000   23.1910000  
H 17.1580000   23.3920000   24.3580000  
H 20.1750000   25.5210000   22.2890000  
H 21.4900000   23.3100000   17.8230000  
H 19.4640000   19.6370000   19.4940000  
H 21.4310000   24.4860000   20.0470000  
