76
100 
C 16.3760000   10.2190000   20.6660000  
C 15.8700000    9.7100000   21.9340000  
C 15.3210000   10.4660000   22.8780000  
C 15.3360000   11.8480000   22.7990000  
C 15.6110000   12.4960000   21.6260000  
C 16.2380000   11.7550000   20.4650000  
C 14.8770000   10.1760000   24.2020000  
C 14.4690000   11.4040000   24.8340000  
N 14.8840000   12.3960000   23.9970000  
O 13.4210000   10.6010000   26.9100000  
C 13.8240000   11.6460000   26.1650000  
O 13.6140000   12.7150000   26.6340000  
O 16.6700000   12.2410000   19.4350000  
O 16.9970000    9.5500000   19.9130000  
H 16.0490000    8.6130000   22.0410000  
H 14.7950000    9.1750000   24.6340000  
H 13.8440000    9.8180000   26.5290000  
H 14.7270000   13.3140000   24.0250000  
C 15.6030000   13.8870000   21.6890000  
C 16.7830000   14.6390000   21.8490000  
C 16.7450000   16.0060000   21.9260000  
C 15.5760000   16.7600000   21.8290000  
C 14.3750000   16.0670000   21.6280000  
C 14.3980000   14.6120000   21.5490000  
C 18.1890000   14.2690000   21.9680000  
C 18.8670000   15.4740000   22.1670000  
N 17.9650000   16.5400000   22.2460000  
O 20.8080000   14.2890000   22.4860000  
C 20.2690000   15.4860000   22.4910000  
O 20.8750000   16.4850000   22.8190000  
O 13.1380000   16.6040000   21.5840000  
O 13.2090000   13.9120000   21.2720000  
H 18.5690000   13.2250000   21.9050000  
H 20.1550000   13.7600000   22.0100000  
H 18.1050000   17.4900000   22.6020000  
H 13.2420000   17.3680000   22.2230000  
H 12.4380000   14.4800000   21.2360000  
C 15.6610000   18.2870000   21.8960000  
C 16.1990000   18.9810000   20.8280000  
C 16.2110000   20.3220000   20.8790000  
C 15.6200000   21.1690000   21.8200000  
C 15.0290000   20.4770000   22.8340000  
C 15.0300000   19.0470000   22.9190000  
C 17.0290000   18.6070000   19.6910000  
C 17.5700000   19.8340000   19.1650000  
N 17.0500000   20.8810000   19.9130000  
O 19.0240000   18.8260000   17.5530000  
C 18.5290000   19.9960000   18.1240000  
O 18.8710000   21.0440000   17.6510000  
O 14.4730000   21.1180000   23.8990000  
O 14.3760000   18.2920000   23.8780000  
H 17.2560000   17.5880000   19.3710000  
H 18.7640000   18.0640000   18.0790000  
H 17.3890000   21.8440000   19.8720000  
H 14.6480000   22.0700000   23.7110000  
H 14.0130000   18.8900000   24.5810000  
C 15.7770000   22.6240000   21.8360000  
C 14.7860000   23.4400000   21.2210000  
C 14.9240000   24.8100000   21.0690000  
C 16.0780000   25.4600000   21.5510000  
C 17.1450000   24.7450000   22.1470000  
C 16.9700000   23.2670000   22.3210000  
C 13.4920000   23.0890000   20.7390000  
C 12.9310000   24.2490000   20.1840000  
N 13.7990000   25.2980000   20.5430000  
O 10.9740000   23.2740000   19.1950000  
C 11.5910000   24.3830000   19.5740000  
O 11.0850000   25.4080000   19.2820000  
O 18.3520000   25.3840000   22.4090000  
O 18.0570000   22.5100000   22.7160000  
H 13.0610000   22.1060000   20.6960000  
H 11.6290000   22.5410000   19.1470000  
H 13.7370000   26.2590000   20.2330000  
H 18.9060000   24.6660000   22.6160000  
H 17.8250000   21.6460000   22.9470000  
H 16.2220000   26.4650000   21.3780000  
