76
100 
C 10.3160000   19.5470000   26.8900000  
C 10.5690000   18.5900000   27.9470000  
C 11.7410000   17.8370000   27.9120000  
C 12.6880000   17.9120000   26.9070000  
C 12.5440000   18.6960000   25.7780000  
C 11.4150000   19.6140000   25.6640000  
C 12.2940000   17.0260000   28.8960000  
C 13.5040000   16.5550000   28.4100000  
N 13.7310000   17.1010000   27.1760000  
O 14.0250000   15.2090000   30.2690000  
C 14.3970000   15.5800000   29.0570000  
O 15.4200000   15.1320000   28.6190000  
O 11.2180000   20.4690000   24.8450000  
O  9.2280000   20.0720000   26.7790000  
H  9.6790000   18.5000000   28.5970000  
H 11.8570000   16.7660000   29.7920000  
H 13.3940000   15.8240000   30.5600000  
H 14.4400000   16.7950000   26.5580000  
C 13.5430000   18.5450000   24.7080000  
C 13.7690000   17.3230000   24.0300000  
C 14.6850000   17.2730000   22.9980000  
C 15.4220000   18.3280000   22.4430000  
C 15.3360000   19.4760000   23.3030000  
C 14.4610000   19.5740000   24.3780000  
C 13.2400000   16.0330000   24.1770000  
C 13.7940000   15.2170000   23.2120000  
N 14.8050000   16.0140000   22.5500000  
O 12.8460000   13.0120000   23.6730000  
C 13.7230000   13.7330000   22.9510000  
O 14.3750000   13.1950000   22.0800000  
O 16.1080000   20.5800000   22.9640000  
O 14.3600000   20.8200000   24.9970000  
H 12.5660000   15.7030000   24.9170000  
H 12.5230000   13.7000000   24.2870000  
H 15.4030000   15.7040000   21.7870000  
H 16.7190000   20.3680000   22.2470000  
H 14.8960000   21.3790000   24.5450000  
C 16.4450000   18.1180000   21.4070000  
C 16.0850000   17.7730000   20.0800000  
C 17.0380000   17.5310000   19.1390000  
C 18.4240000   17.6690000   19.3010000  
C 18.8000000   18.1430000   20.6030000  
C 17.8510000   18.1800000   21.6800000  
C 14.8240000   17.4940000   19.3660000  
C 15.1650000   16.8900000   18.1610000  
N 16.5840000   16.9880000   17.9750000  
O 12.9190000   16.3610000   17.3210000  
C 14.2680000   16.4390000   17.0920000  
O 14.6310000   16.2300000   15.9600000  
O 20.1710000   18.3790000   20.8960000  
O 18.3240000   18.4600000   22.9100000  
H 13.8360000   17.4940000   19.8450000  
H 12.7910000   16.6820000   18.2310000  
H 17.0510000   16.8800000   17.0790000  
H 20.6130000   18.2940000   20.0730000  
H 19.2530000   18.5110000   22.8920000  
C 19.5070000   17.5190000   18.2800000  
C 19.6800000   18.3560000   17.1400000  
C 20.6370000   18.0310000   16.1870000  
C 21.5680000   17.0220000   16.3490000  
C 21.4230000   16.2090000   17.4620000  
C 20.3890000   16.3510000   18.3580000  
C 18.9680000   19.4600000   16.7590000  
C 19.4630000   19.8330000   15.4850000  
N 20.4410000   18.8440000   15.0860000  
O 17.9820000   21.6800000   15.2400000  
C 18.9360000   20.9560000   14.7060000  
O 19.2730000   21.2620000   13.5820000  
O 22.3030000   15.1490000   17.6420000  
O 20.2690000   15.4120000   19.3910000  
H 18.1820000   19.9570000   17.3160000  
H 17.6730000   21.2460000   16.0610000  
H 21.1470000   19.0060000   14.3330000  
H 21.8920000   14.5550000   18.3010000  
H 19.4100000   15.3260000   19.8690000  
H 22.4100000   16.9050000   15.6900000  
