76
100 
C 16.2380000   10.2360000   21.6330000  
C 15.5930000    9.6680000   22.8170000  
C 14.9260000   10.5240000   23.6920000  
C 14.9490000   11.9290000   23.5490000  
C 15.6190000   12.5600000   22.5970000  
C 16.3950000   11.7890000   21.5820000  
C 14.0460000   10.2730000   24.7720000  
C 13.5610000   11.4320000   25.2610000  
N 14.1600000   12.4720000   24.5100000  
O 12.1300000   10.5570000   26.9880000  
C 12.6640000   11.6670000   26.3590000  
O 12.2210000   12.7430000   26.6630000  
O 17.0560000   12.3680000   20.7140000  
O 16.5650000    9.4780000   20.6850000  
H 15.4530000    8.5810000   22.7360000  
H 13.6770000    9.2890000   25.1090000  
H 12.7690000    9.8020000   26.8060000  
H 14.0390000   13.5110000   24.6940000  
C 15.4520000   13.9960000   22.5540000  
C 16.5540000   14.8370000   22.7510000  
C 16.5330000   16.1600000   22.4830000  
C 15.4710000   16.8480000   22.0450000  
C 14.2770000   16.0830000   21.9340000  
C 14.2700000   14.6380000   22.0360000  
C 17.9170000   14.5080000   23.1340000  
C 18.6790000   15.6380000   22.9240000  
N 17.8010000   16.6900000   22.5610000  
O 20.7820000   14.6860000   23.5020000  
C 20.1590000   15.7620000   23.0740000  
O 20.8280000   16.7650000   22.8000000  
O 13.0660000   16.6710000   21.5710000  
O 13.2040000   13.9440000   21.7280000  
H 18.2740000   13.4780000   23.2310000  
H 20.0570000   14.1080000   23.6780000  
H 18.1410000   17.6230000   22.1940000  
H 12.9100000   17.4080000   22.1270000  
H 12.5920000   14.4540000   21.1640000  
C 15.4970000   18.3240000   21.8020000  
C 16.1240000   18.8560000   20.6920000  
C 16.2970000   20.2110000   20.5190000  
C 16.0550000   21.1850000   21.4160000  
C 15.3520000   20.7000000   22.6270000  
C 15.1120000   19.3110000   22.7570000  
C 16.8660000   18.2440000   19.5790000  
C 17.4000000   19.3530000   18.8340000  
N 17.0440000   20.5240000   19.4560000  
O 18.1460000   17.9940000   17.0310000  
C 18.0150000   19.2420000   17.5130000  
O 18.5220000   20.0980000   16.8040000  
O 14.9320000   21.5600000   23.6120000  
O 14.5090000   18.8540000   23.9500000  
H 16.9400000   17.1990000   19.2540000  
H 18.0470000   17.5570000   17.8540000  
H 17.0660000   21.4570000   19.0540000  
H 14.5810000   22.3890000   23.2670000  
H 14.2720000   19.6900000   24.4500000  
C 16.3120000   22.6500000   21.2380000  
C 15.6320000   23.3810000   20.3010000  
C 15.8080000   24.7430000   20.1230000  
C 16.7400000   25.4740000   20.7900000  
C 17.5070000   24.7930000   21.7770000  
C 17.2930000   23.3630000   22.0040000  
C 14.4830000   22.9850000   19.5080000  
C 14.0070000   24.1370000   18.8710000  
N 14.8270000   25.1640000   19.3090000  
O 12.0930000   23.1090000   17.7900000  
C 12.7610000   24.2650000   18.0540000  
O 12.4150000   25.3620000   17.6760000  
O 18.4530000   25.4920000   22.4370000  
O 18.0530000   22.7090000   22.8940000  
H 14.0030000   21.9920000   19.4320000  
H 12.5710000   22.3770000   18.1970000  
H 14.6570000   26.1500000   19.0390000  
H 18.9390000   24.8600000   22.9530000  
H 17.9600000   21.7600000   22.9570000  
H 16.9350000   26.5030000   20.5830000  
