76
100 
C 13.8240000   20.5830000   28.5100000  
C 13.7210000   19.3200000   29.3050000  
C 14.1070000   18.1000000   28.7970000  
C 14.5250000   17.9790000   27.5340000  
C 14.6860000   18.9630000   26.6300000  
C 14.1960000   20.2910000   26.9670000  
C 14.2810000   16.7610000   29.3820000  
C 14.6970000   15.8490000   28.4070000  
N 14.9010000   16.6300000   27.2950000  
O 14.7650000   13.8910000   29.7560000  
C 14.8690000   14.4030000   28.4990000  
O 15.1040000   13.6620000   27.6010000  
O 14.2880000   21.2020000   26.1960000  
O 13.5760000   21.7150000   28.8800000  
H 13.4280000   19.4590000   30.3120000  
H 14.1280000   16.5280000   30.4460000  
H 14.4320000   14.5630000   30.3850000  
H 15.2460000   16.3580000   26.4120000  
C 15.1640000   18.5980000   25.3570000  
C 14.2730000   18.2520000   24.3620000  
C 14.6920000   17.8930000   23.1690000  
C 16.0550000   17.8540000   22.7450000  
C 17.0190000   18.1530000   23.7940000  
C 16.5540000   18.5210000   25.1030000  
C 12.8550000   18.3170000   24.3400000  
C 12.5020000   17.8400000   23.1290000  
N 13.6280000   17.4500000   22.4280000  
O 10.1420000   18.3990000   23.3540000  
C 11.0890000   17.7810000   22.5930000  
O 10.7770000   17.2060000   21.5730000  
O 18.3760000   18.0340000   23.5070000  
O 17.4050000   18.6900000   26.1780000  
H 12.0820000   18.6610000   24.9970000  
H 10.5690000   18.8760000   24.1300000  
H 13.5140000   17.1610000   21.4350000  
H 18.3770000   17.3820000   22.7280000  
H 18.3130000   18.6030000   25.7440000  
C 16.4310000   17.4200000   21.2990000  
C 15.8990000   18.1470000   20.2160000  
C 16.1450000   17.7550000   18.9310000  
C 16.8730000   16.6380000   18.5630000  
C 17.4570000   15.8780000   19.6220000  
C 17.2270000   16.2720000   20.9720000  
C 15.0820000   19.3090000   20.1470000  
C 14.8980000   19.6020000   18.7550000  
N 15.4790000   18.5660000   18.0450000  
O 13.6030000   21.5320000   19.1720000  
C 14.1780000   20.7270000   18.1990000  
O 14.1070000   20.9650000   16.9680000  
O 18.1970000   14.7400000   19.3540000  
O 17.8240000   15.4770000   21.9500000  
H 14.7610000   19.9280000   20.9390000  
H 14.0930000   21.2610000   19.9480000  
H 15.5320000   18.6080000   17.0180000  
H 18.2000000   14.6090000   18.4260000  
H 18.4200000   14.7920000   21.5960000  
C 17.2110000   16.3280000   17.1090000  
C 18.4810000   16.4920000   16.5210000  
C 18.6610000   16.3070000   15.1030000  
C 17.5800000   15.9920000   14.2540000  
C 16.3870000   15.6790000   14.8530000  
C 16.1990000   15.8420000   16.2460000  
C 19.7060000   17.0510000   16.9970000  
C 20.5380000   17.2780000   15.8820000  
N 19.9000000   16.7810000   14.7430000  
O 22.3460000   18.2830000   17.0210000  
C 21.8170000   17.9980000   15.8220000  
O 22.2790000   18.3460000   14.7800000  
O 15.3250000   15.4640000   14.0030000  
O 14.9130000   15.6430000   16.6750000  
H 19.8730000   17.3220000   18.0090000  
H 21.8280000   17.7690000   17.6980000  
H 20.2910000   16.7920000   13.7890000  
H 14.4530000   15.3300000   14.3810000  
H 14.8120000   15.6220000   17.6930000  
H 17.7400000   15.9660000   13.2240000  
