76
100 
C  9.5930000   15.7520000   25.7210000  
C  9.7500000   16.5310000   26.9300000  
C 10.7610000   17.4390000   26.9540000  
C 11.6890000   17.5950000   25.9410000  
C 11.7500000   16.8700000   24.7800000  
C 10.6360000   15.9000000   24.5130000  
C 11.2160000   18.2620000   28.0290000  
C 12.3800000   18.9080000   27.6660000  
N 12.6690000   18.3740000   26.4410000  
O 12.4860000   20.4340000   29.4890000  
C 13.1170000   19.9490000   28.3760000  
O 14.2160000   20.3960000   27.9730000  
O 10.6360000   15.3090000   23.4710000  
O  8.5910000   15.0580000   25.5470000  
H  9.0640000   16.3300000   27.7820000  
H 10.7170000   18.2490000   29.0190000  
H 11.5610000   20.0660000   29.3330000  
H 13.5140000   18.6230000   25.8900000  
C 12.7970000   17.1730000   23.8640000  
C 13.8740000   16.3430000   23.7800000  
C 14.9410000   16.5990000   22.9280000  
C 14.9590000   17.6560000   22.0240000  
C 13.8370000   18.5280000   22.0890000  
C 12.7480000   18.2800000   22.9610000  
C 14.2540000   15.1640000   24.4890000  
C 15.5070000   14.6900000   23.9540000  
N 15.8730000   15.5680000   22.9660000  
O 15.9330000   12.8180000   25.4700000  
C 16.2850000   13.5100000   24.3970000  
O 17.3190000   13.3130000   23.8080000  
O 13.8070000   19.6120000   21.3300000  
O 11.7310000   19.1600000   23.0280000  
H 13.6560000   14.7360000   25.2970000  
H 15.0520000   13.1700000   25.6740000  
H 16.6380000   15.3640000   22.3300000  
H 14.6720000   19.8700000   21.0420000  
H 11.6750000   19.7240000   22.1700000  
C 16.0430000   17.9410000   21.1340000  
C 16.3420000   17.0000000   20.1480000  
C 17.4420000   17.2480000   19.3650000  
C 18.3790000   18.2510000   19.4920000  
C 18.0210000   19.2220000   20.4770000  
C 16.8760000   19.0300000   21.3570000  
C 15.8120000   15.7300000   19.7240000  
C 16.6160000   15.2820000   18.7200000  
N 17.6220000   16.2280000   18.4440000  
O 15.6090000   13.2340000   18.3700000  
C 16.6410000   13.9760000   18.0580000  
O 17.4950000   13.5670000   17.2490000  
O 18.8470000   20.2720000   20.7680000  
O 16.6260000   19.7830000   22.4040000  
H 14.9950000   15.2590000   20.2780000  
H 15.0910000   13.7000000   19.0510000  
H 18.4740000   16.0130000   17.9490000  
H 19.6210000   20.4130000   20.1750000  
H 17.1510000   20.5640000   22.4440000  
C 19.5670000   18.3120000   18.5600000  
C 19.8170000   19.5080000   17.8280000  
C 20.7640000   19.5540000   16.8650000  
C 21.6640000   18.5340000   16.6310000  
C 21.5400000   17.3920000   17.4620000  
C 20.5300000   17.2620000   18.4060000  
C 19.0640000   20.7420000   17.7100000  
C 19.6420000   21.4940000   16.7450000  
N 20.7680000   20.7660000   16.2950000  
O 18.1240000   23.3280000   16.9690000  
C 19.2540000   22.8930000   16.3580000  
O 19.8440000   23.4990000   15.4250000  
O 22.5120000   16.3660000   17.3910000  
O 20.6620000   16.2410000   19.2920000  
H 18.1640000   20.9330000   18.1900000  
H 17.9570000   22.7640000   17.7400000  
H 21.4590000   21.1990000   15.7750000  
H 22.2810000   15.8340000   18.1560000  
H 20.2620000   16.5540000   20.1200000  
H 22.4860000   18.5610000   15.9020000  
