76
100 
C 12.8330000   13.3590000   26.8390000  
C 12.5370000   12.0970000   26.1530000  
C 12.7430000   11.9720000   24.8130000  
C 13.4230000   12.9060000   24.1010000  
C 13.8180000   14.0700000   24.6090000  
C 13.3920000   14.5140000   25.9290000  
C 12.4600000   10.8870000   23.9180000  
C 12.8790000   11.3150000   22.6090000  
N 13.5520000   12.5220000   22.7810000  
O 12.0360000    9.5140000   21.3080000  
C 12.7420000   10.6840000   21.2980000  
O 13.2030000   11.1230000   20.2600000  
O 13.6370000   15.6470000   26.3430000  
O 12.5500000   13.5760000   27.9850000  
H 12.1010000   11.2830000   26.8450000  
H 11.9140000    9.9430000   24.1850000  
H 11.7190000    9.2560000   22.2120000  
H 13.9000000   13.1340000   22.0860000  
C 14.4580000   14.9440000   23.6280000  
C 13.6930000   15.6560000   22.6510000  
C 14.1810000   16.6970000   22.0170000  
C 15.5190000   17.1080000   22.1080000  
C 16.3340000   16.5230000   23.0650000  
C 15.7600000   15.5230000   23.9220000  
C 12.3580000   15.4040000   22.1770000  
C 12.1190000   16.3330000   21.1670000  
N 13.2910000   17.1750000   21.0680000  
O  9.9390000   15.6540000   21.0650000  
C 10.8270000   16.5590000   20.5910000  
O 10.4720000   17.4280000   19.8110000  
O 17.6670000   16.8530000   23.1730000  
O 16.5470000   15.1080000   24.9310000  
H 11.7010000   14.7040000   22.6940000  
H 10.4500000   15.0940000   21.6800000  
H 13.4220000   18.0770000   20.5500000  
H 17.7470000   17.6010000   22.5760000  
H 17.4780000   15.4290000   24.6600000  
C 16.0940000   17.9580000   21.0790000  
C 15.8820000   19.3440000   21.2370000  
C 16.6290000   20.2290000   20.4640000  
C 17.6470000   19.8420000   19.5800000  
C 17.7250000   18.4850000   19.3170000  
C 17.0170000   17.5510000   20.1000000  
C 15.2450000   20.2410000   22.1850000  
C 15.6900000   21.5750000   21.9600000  
N 16.4390000   21.5730000   20.7860000  
O 14.4060000   22.4290000   23.7670000  
C 15.2810000   22.7490000   22.7270000  
O 15.6110000   23.8780000   22.4460000  
O 18.6680000   17.9330000   18.4340000  
O 17.0950000   16.2160000   19.8740000  
H 14.5100000   19.9300000   22.9910000  
H 14.2150000   21.5040000   23.7930000  
H 16.9420000   22.2930000   20.3220000  
H 19.1610000   18.6810000   18.1100000  
H 17.3940000   16.1850000   18.9580000  
C 18.5710000   20.8160000   18.9060000  
C 19.7030000   21.2510000   19.5930000  
C 20.6190000   22.0720000   19.0000000  
C 20.5220000   22.5190000   17.6490000  
C 19.3970000   22.0590000   16.9250000  
C 18.3520000   21.2620000   17.5650000  
C 20.0250000   21.1290000   21.0160000  
C 21.1680000   21.9440000   21.2230000  
N 21.5700000   22.4140000   19.9500000  
O 21.2740000   21.8370000   23.5720000  
C 21.7810000   22.3890000   22.4840000  
O 22.7390000   23.1050000   22.5070000  
O 19.2780000   22.6230000   15.7110000  
O 17.3250000   20.7540000   16.8060000  
H 19.3370000   20.6810000   21.7300000  
H 20.7730000   21.1390000   23.1670000  
H 22.4080000   22.9440000   19.6720000  
H 18.4980000   22.3070000   15.2820000  
H 16.7260000   20.1650000   17.3130000  
H 21.2500000   23.2380000   17.1840000  
