76
100 
C 12.1420000   12.0010000   25.4870000  
C 10.6830000   12.3980000   25.2140000  
C 10.4310000   13.5490000   24.5380000  
C 11.4110000   14.3870000   23.9990000  
C 12.7730000   14.1000000   24.0720000  
C 13.2820000   12.9970000   24.9370000  
C  9.1460000   14.1980000   24.2860000  
C  9.4200000   15.3790000   23.5900000  
N 10.8290000   15.3760000   23.2890000  
O  7.2420000   16.2810000   23.6230000  
C  8.5090000   16.4760000   23.2950000  
O  8.8710000   17.5570000   22.8260000  
O 14.4490000   12.7570000   25.1260000  
O 12.4680000   10.9560000   26.0800000  
H  9.8600000   11.7340000   25.4630000  
H  8.2060000   13.9370000   24.7000000  
H  7.1950000   15.3980000   23.9630000  
H 11.2590000   16.0390000   22.6610000  
C 13.6200000   15.0560000   23.2940000  
C 14.0720000   16.2880000   23.8580000  
C 14.8650000   17.0820000   23.1080000  
C 15.3440000   16.7820000   21.8140000  
C 15.0840000   15.4790000   21.3300000  
C 14.1780000   14.6870000   22.0350000  
C 13.8830000   16.8930000   25.1180000  
C 14.4380000   18.1970000   24.9450000  
N 15.1260000   18.2710000   23.7440000  
O 13.7590000   19.0210000   27.0710000  
C 14.5790000   19.1350000   26.0110000  
O 15.3960000   20.0110000   25.8880000  
O 15.3680000   15.1050000   20.0470000  
O 13.8800000   13.4220000   21.5870000  
H 13.2800000   16.5240000   25.9760000  
H 13.2670000   18.2080000   26.8260000  
H 15.6080000   19.0860000   23.3590000  
H 15.7690000   15.9320000   19.7140000  
H 14.2250000   13.4190000   20.6540000  
C 16.2520000   17.7030000   21.0900000  
C 17.5160000   18.0700000   21.6330000  
C 18.3530000   19.0460000   21.0190000  
C 17.9560000   19.7970000   19.8750000  
C 16.6970000   19.4130000   19.3590000  
C 15.8100000   18.4340000   19.9670000  
C 18.2080000   17.5920000   22.7430000  
C 19.3700000   18.4460000   22.8440000  
N 19.4770000   19.2830000   21.7450000  
O 20.3150000   17.3910000   24.8430000  
C 20.4880000   18.3440000   23.8940000  
O 21.4070000   19.1460000   23.9460000  
O 16.3220000   20.0130000   18.1700000  
O 14.5180000   18.2960000   19.5860000  
H 18.0560000   16.8600000   23.5470000  
H 19.5180000   17.0260000   24.4110000  
H 20.2620000   19.9030000   21.4190000  
H 16.8030000   20.8340000   18.0750000  
H 14.3800000   18.8900000   18.8220000  
C 18.7540000   20.8150000   19.2260000  
C 19.4850000   20.5380000   18.0490000  
C 20.1660000   21.4630000   17.2880000  
C 20.1640000   22.7730000   17.7250000  
C 19.4600000   23.1320000   18.9120000  
C 18.6560000   22.1760000   19.5890000  
C 19.6750000   19.2810000   17.4000000  
C 20.3910000   19.4970000   16.2410000  
N 20.7300000   20.8870000   16.1370000  
O 20.8780000   17.2160000   15.5990000  
C 21.0580000   18.5200000   15.3130000  
O 21.7340000   18.8840000   14.3700000  
O 19.3500000   24.4700000   19.2170000  
O 18.0380000   22.4760000   20.7700000  
H 19.3990000   18.3350000   17.7720000  
H 20.3260000   17.2500000   16.3720000  
H 21.3380000   21.2990000   15.4070000  
H 18.9340000   24.5900000   20.0750000  
H 17.6030000   21.7030000   21.0190000  
H 20.5550000   23.6220000   17.1630000  
