76
100 
C 19.3040000   10.6120000   21.7880000  
C 18.1720000    9.9160000   22.4750000  
C 17.0710000   10.6280000   22.9000000  
C 16.9070000   11.9640000   22.6880000  
C 17.9050000   12.7910000   22.1430000  
C 19.1630000   12.1710000   21.6510000  
C 15.9080000   10.2320000   23.5660000  
C 15.0620000   11.3380000   23.7590000  
N 15.7710000   12.3870000   23.2070000  
O 13.3550000   10.0030000   24.9910000  
C 13.7160000   11.2820000   24.4940000  
O 12.9610000   12.2130000   24.5500000  
O 20.0210000   12.8420000   21.1530000  
O 20.3520000   10.1030000   21.5150000  
H 18.2980000    8.8710000   22.6060000  
H 15.7930000    9.1890000   23.8480000  
H 14.2020000    9.5600000   25.1620000  
H 15.3790000   13.3160000   23.1420000  
C 17.4920000   14.1770000   21.9450000  
C 17.5110000   15.1640000   22.9790000  
C 16.9430000   16.4170000   22.7390000  
C 16.3880000   16.8230000   21.5090000  
C 16.4430000   15.8180000   20.5350000  
C 16.9390000   14.5000000   20.7250000  
C 18.1380000   15.2220000   24.3330000  
C 17.8820000   16.5340000   24.7790000  
N 17.1680000   17.2070000   23.8380000  
O 19.0190000   16.2550000   26.8390000  
C 18.4780000   17.0990000   25.9580000  
O 18.3810000   18.3090000   26.2310000  
O 15.8370000   16.0900000   19.3740000  
O 16.8300000   13.6460000   19.6860000  
H 18.7340000   14.4690000   24.7600000  
H 18.8500000   15.3780000   26.5340000  
H 16.9820000   18.2370000   23.8800000  
H 15.2910000   16.8780000   19.5150000  
H 16.7600000   14.2300000   18.8770000  
C 15.7870000   18.1520000   21.2140000  
C 16.5340000   19.3500000   21.3490000  
C 15.9310000   20.5590000   21.2330000  
C 14.4930000   20.7750000   21.0800000  
C 13.7410000   19.5750000   21.0260000  
C 14.3880000   18.3340000   21.1220000  
C 17.9040000   19.6260000   21.5710000  
C 17.9960000   21.0150000   21.6420000  
N 16.8030000   21.5780000   21.2690000  
O 20.3750000   20.8370000   21.8940000  
C 19.3300000   21.6490000   21.7630000  
O 19.3490000   22.8520000   21.7820000  
O 12.4160000   19.6840000   21.1500000  
O 13.5080000   17.2810000   21.2230000  
H 18.7940000   18.9350000   21.6850000  
H 19.9770000   19.9700000   21.9090000  
H 16.6290000   22.5870000   21.3060000  
H 12.2640000   20.4860000   21.5930000  
H 12.6960000   17.6290000   20.8930000  
C 13.8360000   22.1110000   20.9900000  
C 13.0990000   22.5480000   19.8680000  
C 12.4210000   23.7460000   19.7890000  
C 12.5180000   24.6050000   20.8340000  
C 13.2500000   24.3090000   21.9740000  
C 13.8440000   23.0270000   22.1060000  
C 13.0560000   21.9400000   18.5650000  
C 12.3050000   22.7640000   17.7570000  
N 11.8030000   23.8640000   18.5270000  
O 12.6590000   21.4540000   15.8290000  
C 12.0370000   22.5400000   16.3320000  
O 11.1730000   23.0510000   15.6260000  
O 13.5140000   25.2850000   22.8300000  
O 14.5020000   22.7480000   23.2850000  
H 13.2860000   20.8420000   18.2390000  
H 13.1530000   20.9120000   16.5030000  
H 11.1620000   24.5470000   18.1150000  
H 14.0040000   25.1300000   23.5980000  
H 15.1350000   22.0150000   23.1920000  
H 12.1280000   25.6180000   20.6900000  
