76
100 
C 18.5910000   14.2250000   28.0410000  
C 19.5160000   13.3000000   27.3820000  
C 19.6620000   13.2860000   26.0340000  
C 19.0540000   14.1900000   25.2370000  
C 18.2400000   15.1780000   25.7210000  
C 17.8650000   15.3060000   27.0760000  
C 20.5350000   12.5290000   25.1850000  
C 20.3760000   13.0200000   23.8860000  
N 19.4820000   14.0850000   23.9940000  
O 22.0320000   11.7340000   22.7610000  
C 21.0490000   12.6550000   22.6200000  
O 20.7230000   13.1310000   21.5690000  
O 16.9910000   16.0580000   27.5130000  
O 18.4190000   14.3010000   29.2160000  
H 20.0190000   12.5610000   28.0210000  
H 21.1260000   11.6330000   25.4890000  
H 22.1790000   11.8640000   23.6980000  
H 19.2920000   14.6740000   23.3040000  
C 17.7300000   16.0050000   24.6310000  
C 16.4630000   15.6100000   24.1000000  
C 15.8910000   16.3050000   23.0990000  
C 16.4440000   17.4260000   22.4940000  
C 17.6220000   17.8970000   23.0810000  
C 18.2990000   17.2040000   24.1500000  
C 15.6070000   14.4590000   24.4230000  
C 14.5370000   14.5790000   23.5050000  
N 14.6700000   15.7550000   22.7600000  
O 13.7750000   12.4800000   24.0270000  
C 13.5180000   13.6050000   23.3180000  
O 12.5260000   13.7080000   22.6040000  
O 18.2220000   18.9970000   22.5420000  
O 19.4990000   17.6940000   24.6830000  
H 15.8220000   13.6190000   25.1130000  
H 14.6690000   12.6340000   24.3150000  
H 13.9630000   16.0890000   22.1250000  
H 17.6770000   19.3120000   21.7990000  
H 19.7960000   18.5180000   24.2670000  
C 15.8820000   18.0970000   21.2980000  
C 14.6320000   18.7030000   21.4030000  
C 14.0650000   19.2850000   20.3110000  
C 14.6030000   19.2630000   18.9970000  
C 15.9050000   18.7420000   18.9600000  
C 16.5570000   18.2360000   20.0650000  
C 13.6700000   18.8360000   22.5110000  
C 12.5290000   19.5610000   22.0200000  
N 12.8470000   19.8790000   20.6540000  
O 11.2150000   19.1240000   23.9790000  
C 11.2760000   19.7050000   22.7610000  
O 10.2680000   20.1650000   22.1850000  
O 16.6830000   19.0250000   17.7840000  
O 17.8130000   17.6690000   19.9370000  
H 13.7380000   18.4730000   23.4870000  
H 12.1380000   19.1600000   24.2120000  
H 12.1940000   20.3510000   20.0120000  
H 16.0330000   19.3520000   17.1350000  
H 18.1940000   17.6900000   19.0080000  
C 14.0620000   20.0480000   17.7920000  
C 14.0010000   21.4470000   17.6460000  
C 13.3480000   21.9800000   16.5750000  
C 12.8990000   21.2520000   15.4650000  
C 13.1200000   19.8390000   15.4210000  
C 13.6750000   19.2470000   16.6310000  
C 14.3410000   22.5790000   18.5000000  
C 13.9470000   23.7370000   17.8640000  
N 13.2660000   23.3800000   16.6700000  
O 14.9320000   25.1850000   19.5120000  
C 14.1770000   25.1160000   18.3740000  
O 13.6790000   26.1110000   17.8600000  
O 12.8180000   19.0370000   14.2780000  
O 13.8050000   17.8590000   16.6500000  
H 15.0430000   22.5020000   19.3360000  
H 15.0910000   24.2710000   19.8100000  
H 12.9860000   24.0630000   15.9910000  
H 12.8650000   18.0760000   14.4760000  
H 13.9750000   17.6180000   17.5820000  
H 12.6100000   21.8460000   14.5660000  
