76
100 
C  9.1500000   15.3280000   24.3800000  
C  9.0790000   15.8920000   25.6970000  
C 10.1800000   16.4850000   26.2390000  
C 11.3010000   16.7350000   25.5100000  
C 11.5560000   16.3010000   24.2640000  
C 10.5020000   15.4450000   23.5970000  
C 10.2390000   17.1630000   27.4900000  
C 11.5400000   17.6590000   27.5390000  
N 12.1020000   17.4360000   26.3260000  
O 11.4880000   18.4660000   29.7700000  
C 12.1440000   18.3720000   28.6420000  
O 13.1860000   18.9880000   28.5520000  
O 10.6480000   14.8270000   22.5010000  
O  8.1920000   14.7920000   23.8220000  
H  8.1910000   15.6120000   26.1650000  
H  9.5060000   17.1430000   28.2690000  
H 10.7660000   17.8530000   29.7820000  
H 13.0180000   17.7310000   26.0800000  
C 12.7170000   16.7790000   23.5680000  
C 13.9640000   16.2690000   23.8390000  
C 15.0580000   16.8480000   23.1460000  
C 15.0680000   17.9050000   22.2650000  
C 13.8030000   18.3660000   21.9510000  
C 12.5970000   17.8290000   22.5840000  
C 14.4890000   15.1400000   24.6430000  
C 15.8230000   15.0480000   24.4740000  
N 16.2040000   16.1360000   23.5660000  
O 16.0000000   13.1200000   25.7800000  
C 16.6290000   14.0800000   25.0750000  
O 17.8060000   14.1670000   25.0560000  
O 13.6090000   19.2090000   20.8550000  
O 11.4140000   18.3390000   22.2520000  
H 13.8680000   14.4880000   25.2630000  
H 15.0650000   13.2990000   25.9160000  
H 17.1210000   16.3410000   23.1730000  
H 14.5040000   19.4410000   20.6470000  
H 11.5680000   18.9650000   21.4810000  
C 16.2750000   18.4120000   21.5210000  
C 16.9710000   17.5480000   20.7090000  
C 18.0490000   18.0600000   19.9700000  
C 18.3740000   19.4540000   19.9200000  
C 17.5870000   20.3360000   20.6930000  
C 16.5650000   19.8090000   21.5090000  
C 16.9530000   16.1510000   20.4120000  
C 17.9430000   15.9360000   19.4560000  
N 18.5670000   17.1160000   19.1680000  
O 17.5490000   13.5460000   19.5690000  
C 18.2730000   14.5460000   18.9730000  
O 19.1380000   14.3100000   18.1480000  
O 17.8300000   21.6690000   20.6850000  
O 15.9000000   20.7520000   22.2660000  
H 16.1390000   15.5320000   20.7570000  
H 16.9120000   13.9780000   20.1740000  
H 19.3860000   17.2890000   18.5570000  
H 18.4030000   21.7550000   19.9250000  
H 16.4510000   21.5900000   22.3170000  
C 19.5420000   19.9230000   19.0770000  
C 19.7150000   19.7200000   17.6690000  
C 20.8710000   20.0610000   17.0040000  
C 22.0170000   20.5850000   17.6250000  
C 21.8310000   20.8290000   19.0250000  
C 20.6420000   20.5460000   19.7480000  
C 18.8750000   19.0620000   16.6990000  
C 19.5310000   19.0500000   15.4810000  
N 20.7870000   19.5470000   15.6850000  
O 17.6470000   18.3050000   14.1280000  
C 18.9060000   18.7470000   14.1420000  
O 19.4530000   18.7760000   13.0950000  
O 22.8560000   21.3370000   19.7580000  
O 20.6800000   20.8640000   21.1280000  
H 17.8590000   18.8220000   16.8400000  
H 17.4100000   17.9440000   14.9940000  
H 21.4650000   19.4410000   14.9210000  
H 22.6360000   21.4590000   20.6900000  
H 19.8120000   20.5030000   21.5790000  
H 22.9840000   20.5370000   17.1130000  
