76
100 
C 12.5110000   11.8940000   25.6450000  
C 11.0940000   12.2460000   25.3650000  
C 10.7220000   13.1690000   24.4520000  
C 11.6710000   14.0480000   23.8860000  
C 13.0450000   13.8950000   24.1250000  
C 13.6590000   12.8380000   25.0240000  
C  9.4740000   13.7480000   24.0930000  
C  9.6770000   14.8420000   23.2550000  
N 11.0610000   14.9320000   23.1230000  
O  7.3730000   15.5240000   23.3440000  
C  8.6370000   15.8340000   22.9520000  
O  8.8130000   16.8960000   22.3900000  
O 14.8270000   12.7360000   25.3360000  
O 12.8520000   11.0030000   26.4410000  
H 10.3800000   11.8360000   26.0360000  
H  8.5540000   13.5260000   24.5020000  
H  7.3810000   14.6140000   23.6570000  
H 11.5640000   15.5100000   22.5190000  
C 13.9150000   14.8710000   23.4640000  
C 13.8570000   16.2290000   23.7190000  
C 14.6160000   17.0950000   23.0680000  
C 15.4930000   16.7590000   21.9980000  
C 15.5870000   15.3660000   21.7290000  
C 14.7550000   14.4600000   22.4430000  
C 13.1430000   16.8780000   24.7350000  
C 13.5750000   18.1830000   24.6470000  
N 14.4840000   18.3710000   23.5710000  
O 12.0850000   19.0430000   26.2910000  
C 13.0470000   19.3000000   25.3950000  
O 13.4940000   20.4050000   25.1490000  
O 16.4350000   14.8690000   20.7980000  
O 14.8120000   13.1550000   22.0650000  
H 12.2450000   16.6560000   25.2270000  
H 11.9140000   18.0960000   26.2330000  
H 14.6390000   19.2580000   23.1060000  
H 17.0640000   15.5940000   20.6260000  
H 15.5950000   13.1010000   21.4450000  
C 16.2700000   17.7140000   21.1990000  
C 17.4530000   18.2940000   21.6750000  
C 18.0050000   19.3240000   21.0100000  
C 17.6830000   19.7810000   19.6860000  
C 16.5660000   19.1130000   19.1600000  
C 15.8510000   18.1060000   19.9250000  
C 18.2180000   18.1480000   22.8710000  
C 19.2450000   19.1060000   22.8380000  
N 19.1890000   19.7710000   21.6790000  
O 20.0240000   18.7050000   25.1110000  
C 20.2040000   19.3270000   23.9150000  
O 21.1710000   20.0360000   23.7200000  
O 16.1180000   19.4860000   17.9120000  
O 14.8290000   17.4730000   19.2340000  
H 17.8580000   17.6270000   23.7760000  
H 19.1960000   18.2440000   25.0520000  
H 20.0010000   20.3470000   21.3070000  
H 16.6150000   20.2630000   17.6580000  
H 14.6520000   17.7870000   18.2790000  
C 18.4340000   20.8740000   18.9400000  
C 19.5030000   20.5560000   18.0450000  
C 20.1880000   21.5680000   17.4490000  
C 19.9700000   22.9490000   17.6950000  
C 18.9800000   23.2690000   18.5680000  
C 18.3050000   22.2660000   19.2560000  
C 19.9910000   19.3150000   17.5510000  
C 21.1530000   19.6360000   16.8280000  
N 21.1890000   21.0090000   16.7080000  
O 21.8880000   17.4010000   16.3310000  
C 22.1010000   18.7370000   16.1510000  
O 22.9310000   19.1980000   15.4010000  
O 18.8550000   24.5610000   19.0430000  
O 17.4810000   22.6360000   20.2750000  
H 19.6880000   18.2840000   17.7840000  
H 21.0990000   17.2760000   16.8290000  
H 21.9430000   21.4650000   16.2150000  
H 18.0740000   24.5180000   19.6390000  
H 17.0170000   21.7550000   20.6060000  
H 20.5040000   23.7180000   17.2210000  
