76
100 
C 18.6370000   16.7550000   28.9770000  
C 17.2620000   16.7830000   29.5370000  
C 16.1340000   16.8150000   28.7920000  
C 16.2280000   17.0910000   27.4100000  
C 17.3700000   17.3580000   26.7100000  
C 18.6370000   17.1180000   27.4340000  
C 14.7980000   16.5150000   29.0690000  
C 14.1020000   16.6900000   27.8480000  
N 15.0170000   17.1200000   26.9010000  
O 11.9350000   15.9580000   28.8020000  
C 12.6170000   16.4050000   27.6980000  
O 12.1050000   16.5680000   26.6250000  
O 19.6500000   17.1410000   26.7470000  
O 19.6180000   16.5400000   29.6130000  
H 17.1500000   16.5800000   30.5890000  
H 14.3850000   16.1520000   30.0130000  
H 12.4440000   15.9950000   29.5910000  
H 14.7310000   17.3050000   25.9340000  
C 17.1960000   17.4420000   25.2890000  
C 17.1380000   18.7020000   24.6670000  
C 16.8790000   18.9100000   23.3800000  
C 16.7560000   17.8500000   22.4790000  
C 16.9220000   16.5460000   22.9420000  
C 17.1890000   16.3530000   24.3860000  
C 17.0350000   20.0400000   25.2830000  
C 16.6540000   20.9940000   24.3000000  
N 16.6870000   20.2380000   23.0960000  
O 16.7040000   22.9020000   25.7550000  
C 16.4180000   22.4650000   24.5060000  
O 15.9640000   23.1940000   23.6830000  
O 17.0100000   15.4490000   22.0900000  
O 17.3870000   15.0510000   24.8640000  
H 17.2490000   20.1600000   26.3700000  
H 16.9620000   22.0150000   26.1370000  
H 16.5000000   20.5990000   22.2090000  
H 16.7970000   15.7880000   21.2120000  
H 17.5910000   14.4630000   24.1240000  
C 16.3740000   18.0770000   21.0560000  
C 17.2540000   17.6840000   19.9790000  
C 16.7880000   17.7840000   18.6590000  
C 15.4960000   18.1410000   18.2770000  
C 14.6280000   18.6100000   19.3680000  
C 15.0950000   18.4860000   20.7120000  
C 18.5620000   16.9780000   19.9070000  
C 18.7290000   16.6390000   18.5690000  
N 17.6660000   17.1760000   17.7980000  
O 20.5560000   15.1480000   18.9300000  
C 19.7520000   15.7200000   18.0080000  
O 19.8190000   15.4530000   16.8330000  
O 13.3000000   18.9360000   19.0500000  
O 14.1630000   18.6410000   21.7820000  
H 19.2050000   16.6370000   20.7370000  
H 20.1300000   15.4410000   19.7260000  
H 17.4700000   17.1270000   16.7900000  
H 13.1130000   18.5020000   18.1710000  
H 13.3970000   19.0490000   21.4530000  
C 14.9870000   18.3320000   16.8610000  
C 14.0170000   17.4720000   16.3500000  
C 13.4550000   17.6930000   15.1470000  
C 13.6370000   18.8400000   14.4500000  
C 14.5580000   19.7500000   14.9370000  
C 15.3320000   19.4920000   16.0930000  
C 13.3100000   16.2990000   16.9530000  
C 12.5250000   15.8150000   15.9080000  
N 12.6670000   16.6440000   14.7500000  
O 11.5930000   13.9890000   17.0490000  
C 11.6420000   14.6260000   15.8170000  
O 11.1740000   14.2050000   14.7950000  
O 14.8250000   20.8590000   14.1450000  
O 16.2800000   20.3820000   16.5550000  
H 13.4990000   15.8810000   17.9560000  
H 12.2370000   14.4720000   17.5600000  
H 12.2410000   16.6120000   13.8530000  
H 15.3890000   21.4990000   14.5750000  
H 16.9150000   19.9280000   17.1080000  
H 13.2390000   18.9290000   13.4460000  
