76
100 
C 17.2350000   14.4490000   28.5990000  
C 18.2500000   15.4010000   29.0660000  
C 18.6120000   16.4960000   28.3310000  
C 17.9070000   16.8600000   27.1920000  
C 17.0680000   16.0870000   26.5300000  
C 16.6100000   14.7750000   27.1080000  
C 19.7770000   17.3910000   28.4000000  
C 19.6480000   18.3460000   27.4030000  
N 18.5130000   17.9550000   26.6460000  
O 21.6270000   19.5840000   27.8520000  
C 20.4980000   19.4830000   27.0650000  
O 20.1830000   20.1750000   26.1330000  
O 15.8970000   14.0250000   26.5030000  
O 16.9420000   13.3800000   29.1930000  
H 18.7340000   15.1590000   30.0340000  
H 20.5640000   17.1950000   29.0880000  
H 21.3420000   19.0150000   28.5620000  
H 18.1530000   18.5180000   25.8820000  
C 16.5880000   16.5400000   25.2460000  
C 17.2790000   16.1920000   24.1050000  
C 16.8750000   16.7030000   22.9010000  
C 15.7670000   17.5700000   22.7600000  
C 15.0350000   17.8980000   23.9200000  
C 15.4340000   17.4010000   25.1970000  
C 18.4210000   15.3570000   23.8980000  
C 18.7060000   15.4850000   22.5370000  
N 17.7580000   16.2600000   21.9080000  
O 20.5880000   13.9820000   22.2810000  
C 19.7640000   14.8660000   21.6860000  
O 19.9010000   15.0940000   20.4910000  
O 13.9930000   18.7320000   23.8200000  
O 14.7270000   17.6710000   26.3230000  
H 19.0910000   14.8690000   24.6620000  
H 20.1430000   13.7640000   23.1110000  
H 17.7590000   16.4610000   20.8980000  
H 13.7430000   18.8110000   22.8590000  
H 14.1950000   18.4160000   25.9670000  
C 15.4290000   18.0680000   21.3860000  
C 15.0340000   17.1370000   20.3830000  
C 14.6020000   17.5810000   19.1830000  
C 14.6020000   18.9270000   18.7390000  
C 15.0150000   19.8660000   19.7220000  
C 15.3890000   19.4730000   21.0470000  
C 14.8390000   15.7000000   20.3460000  
C 14.4630000   15.4280000   19.0520000  
N 14.2470000   16.6150000   18.3240000  
O 14.8540000   13.1500000   19.4090000  
C 14.5610000   14.0900000   18.4730000  
O 14.4850000   13.8340000   17.3010000  
O 15.0760000   21.1610000   19.3650000  
O 15.7850000   20.4450000   21.9020000  
H 15.2130000   14.9340000   20.9670000  
H 14.6740000   13.4690000   20.2740000  
H 14.1400000   16.7990000   17.3050000  
H 14.7710000   21.2820000   18.4450000  
H 15.8010000   21.3560000   21.5040000  
C 14.2920000   19.3760000   17.3300000  
C 13.0160000   19.8750000   16.9780000  
C 12.7730000   20.3340000   15.7350000  
C 13.7720000   20.2720000   14.7320000  
C 15.0340000   19.6960000   15.0810000  
C 15.3430000   19.2870000   16.3790000  
C 11.8430000   19.8790000   17.7840000  
C 10.8840000   20.4910000   16.9620000  
N 11.4740000   20.7310000   15.7010000  
O  9.1990000   20.8270000   18.6230000  
C  9.5870000   21.0570000   17.3820000  
O  8.9080000   21.7130000   16.5630000  
O 16.0070000   19.5550000   14.1250000  
O 16.6070000   18.9050000   16.6900000  
H 11.6470000   19.4040000   18.7720000  
H  9.9410000   20.3660000   19.1010000  
H 11.0870000   21.3640000   15.0690000  
H 16.8740000   19.4540000   14.5340000  
H 16.6670000   18.5950000   17.6090000  
H 13.5360000   20.6320000   13.7440000  
