76
100 
C 17.3010000   12.9410000   27.6650000  
C 18.7960000   13.0740000   27.7340000  
C 19.4300000   14.1080000   27.0690000  
C 18.7650000   15.0140000   26.2170000  
C 17.3910000   15.0300000   26.0820000  
C 16.5570000   14.0340000   26.7680000  
C 20.8010000   14.3890000   26.8200000  
C 20.9460000   15.4390000   25.9080000  
N 19.6760000   15.7780000   25.5800000  
O 23.2830000   15.4530000   25.7870000  
C 22.2040000   15.9940000   25.3080000  
O 22.2610000   16.7600000   24.3610000  
O 15.3340000   14.0460000   26.6040000  
O 16.6400000   12.0660000   28.1710000  
H 19.4060000   12.3330000   28.2470000  
H 21.6560000   13.7290000   27.1650000  
H 23.0950000   14.9530000   26.5880000  
H 19.5120000   16.4110000   24.8230000  
C 16.8570000   15.9570000   25.1100000  
C 16.5330000   15.4800000   23.8820000  
C 15.9870000   16.2290000   22.9010000  
C 15.7980000   17.6340000   23.0030000  
C 16.1510000   18.2170000   24.2710000  
C 16.6540000   17.3470000   25.3280000  
C 16.7460000   14.1520000   23.3150000  
C 16.2130000   14.1640000   21.9850000  
N 15.7770000   15.4720000   21.7380000  
O 16.5980000   11.8690000   21.5090000  
C 16.0260000   13.0620000   21.0740000  
O 15.4180000   13.0480000   20.0460000  
O 16.0560000   19.5410000   24.5220000  
O 17.1910000   17.9410000   26.4260000  
H 17.0120000   13.2710000   23.8860000  
H 17.0970000   12.1180000   22.2870000  
H 15.2990000   15.8360000   20.9840000  
H 15.8200000   20.0520000   23.7330000  
H 17.1040000   18.9290000   26.3310000  
C 15.3760000   18.4160000   21.7310000  
C 14.1780000   18.0320000   21.0570000  
C 13.9320000   18.4630000   19.8080000  
C 14.5880000   19.5430000   19.1380000  
C 15.7010000   20.0820000   19.8840000  
C 16.0710000   19.4690000   21.1450000  
C 13.1200000   17.0130000   21.3440000  
C 12.2440000   17.0250000   20.2290000  
N 12.8220000   17.9070000   19.2970000  
O 10.9630000   15.2100000   20.9250000  
C 11.0750000   16.1940000   19.9990000  
O 10.3360000   16.2930000   19.0250000  
O 16.3700000   21.2410000   19.5120000  
O 17.1600000   19.9930000   21.8000000  
H 13.0310000   16.4060000   22.2560000  
H 11.3380000   15.6550000   21.6990000  
H 12.3670000   18.2750000   18.4810000  
H 16.1490000   21.4870000   18.5980000  
H 17.4300000   20.7000000   21.1480000  
C 14.3520000   20.2120000   17.8050000  
C 13.9700000   21.5700000   17.5770000  
C 13.9420000   22.0830000   16.3410000  
C 14.0790000   21.3190000   15.2210000  
C 14.3550000   19.9460000   15.3520000  
C 14.4650000   19.3950000   16.6640000  
C 13.7750000   22.6280000   18.5460000  
C 13.6300000   23.8190000   17.7850000  
N 13.8380000   23.4740000   16.4770000  
O 12.7970000   25.2710000   19.3770000  
C 13.3690000   25.2150000   18.1840000  
O 13.3870000   26.2010000   17.4910000  
O 14.6200000   19.1680000   14.2140000  
O 14.9860000   18.1000000   16.7110000  
H 13.8490000   22.5730000   19.6140000  
H 12.9470000   24.4140000   19.7210000  
H 13.7660000   24.0030000   15.6500000  
H 14.9120000   18.2550000   14.4380000  
H 15.5160000   18.1160000   17.5580000  
H 13.9400000   21.6940000   14.1760000  
