76
100 
C 18.1880000   15.5460000   28.5860000  
C 19.5420000   14.9260000   28.4040000  
C 20.0090000   14.7530000   27.1210000  
C 19.3630000   15.1700000   25.9870000  
C 18.1910000   15.8640000   25.9660000  
C 17.5260000   16.1230000   27.2940000  
C 21.2020000   14.1660000   26.6360000  
C 21.1960000   14.1960000   25.2410000  
N 20.0530000   14.7880000   24.8780000  
O 23.2940000   13.3220000   25.0020000  
C 22.2570000   13.8180000   24.3530000  
O 22.2250000   13.9510000   23.1320000  
O 16.4450000   16.7480000   27.2940000  
O 17.6980000   15.5810000   29.7230000  
H 20.0610000   14.7620000   29.3480000  
H 22.0790000   13.7950000   27.1890000  
H 22.9330000   12.7780000   25.7240000  
H 19.6540000   14.8220000   23.9280000  
C 17.7660000   16.4370000   24.7030000  
C 17.0650000   15.7160000   23.6940000  
C 16.5300000   16.3040000   22.6120000  
C 16.7850000   17.5760000   22.1870000  
C 17.5590000   18.3320000   23.1310000  
C 18.0370000   17.7670000   24.3460000  
C 16.7200000   14.3510000   23.6980000  
C 16.1400000   14.1260000   22.4330000  
N 15.9410000   15.3660000   21.7800000  
O 16.1050000   11.6630000   22.5850000  
C 15.6700000   12.8170000   21.9440000  
O 14.8710000   12.7130000   21.0600000  
O 17.8400000   19.6920000   22.9540000  
O 18.9000000   18.5240000   25.0870000  
H 16.8580000   13.5120000   24.4010000  
H 16.9620000   11.8590000   22.9250000  
H 15.4700000   15.5240000   20.9050000  
H 17.6810000   19.9610000   22.0300000  
H 19.0960000   19.3480000   24.6150000  
C 16.1320000   18.1740000   21.0030000  
C 14.7770000   18.5560000   21.0670000  
C 14.1450000   18.9960000   19.9660000  
C 14.6200000   19.0870000   18.6270000  
C 15.9920000   18.6520000   18.5610000  
C 16.7550000   18.2300000   19.7050000  
C 13.8410000   18.5970000   22.1510000  
C 12.6300000   19.1010000   21.6500000  
N 12.8630000   19.3220000   20.2480000  
O 11.1020000   18.8760000   23.6310000  
C 11.2770000   19.2200000   22.3130000  
O 10.3040000   19.4240000   21.6730000  
O 16.6240000   18.8250000   17.3680000  
O 18.0970000   17.7130000   19.5630000  
H 13.9060000   18.0340000   23.1250000  
H 12.0030000   18.4900000   23.8790000  
H 12.1720000   19.5910000   19.5890000  
H 15.9600000   19.0870000   16.7200000  
H 18.3270000   17.9240000   18.6550000  
C 13.7640000   19.4920000   17.4340000  
C 13.0830000   20.7910000   17.4000000  
C 12.1430000   21.0790000   16.4340000  
C 11.7910000   20.1320000   15.4290000  
C 12.5190000   18.9530000   15.3550000  
C 13.5380000   18.6260000   16.3390000  
C 13.1100000   21.9540000   18.3440000  
C 12.2090000   22.8670000   17.8500000  
N 11.5670000   22.3210000   16.7480000  
O 12.3900000   24.5230000   19.6180000  
C 11.6890000   24.1460000   18.5540000  
O 10.8040000   24.8500000   18.0480000  
O 12.2660000   18.0450000   14.3790000  
O 14.2830000   17.4270000   16.3370000  
H 13.8690000   22.1200000   19.0890000  
H 12.9330000   23.7460000   19.8070000  
H 10.7760000   22.6720000   16.3350000  
H 12.8840000   17.2850000   14.5040000  
H 14.2430000   17.0800000   17.2190000  
H 10.9030000   20.3220000   14.7580000  
