76
100 
C 21.4490000   13.4960000   25.0520000  
C 20.8590000   12.1950000   24.8300000  
C 19.6500000   12.0190000   24.2160000  
C 18.9670000   13.0620000   23.6030000  
C 19.3670000   14.4060000   23.7180000  
C 20.5360000   14.7130000   24.5150000  
C 18.8920000   10.8460000   23.8240000  
C 17.6760000   11.1480000   23.1320000  
N 17.8150000   12.5400000   23.0180000  
O 16.7750000    8.9820000   23.1800000  
C 16.5400000   10.2870000   22.8240000  
O 15.4280000   10.5640000   22.3610000  
O 20.9240000   15.8560000   24.6800000  
O 22.5700000   13.7380000   25.4740000  
H 21.2880000   11.3120000   25.2800000  
H 19.2270000    9.8840000   24.1840000  
H 17.7030000    9.0430000   23.4820000  
H 17.1820000   13.1560000   22.4670000  
C 18.4360000   15.3040000   23.0920000  
C 17.3240000   15.7940000   23.8000000  
C 16.3540000   16.5580000   23.1490000  
C 16.4540000   16.9380000   21.8530000  
C 17.5240000   16.3620000   21.1090000  
C 18.5220000   15.5150000   21.6710000  
C 16.9090000   15.6910000   25.1730000  
C 15.6870000   16.4500000   25.2860000  
N 15.3360000   16.9870000   24.0260000  
O 15.6030000   15.9920000   27.6360000  
C 15.0170000   16.6400000   26.5990000  
O 13.9620000   17.2420000   26.7230000  
O 17.6550000   16.7270000   19.8180000  
O 19.5120000   14.9580000   20.9520000  
H 17.4330000   15.1130000   25.8500000  
H 16.3360000   15.4690000   27.2640000  
H 14.7030000   17.7350000   23.8050000  
H 16.8230000   16.5970000   19.3470000  
H 19.3840000   15.2220000   20.0060000  
C 15.3520000   17.8010000   21.1780000  
C 15.1510000   19.1110000   21.6170000  
C 14.3220000   19.9400000   20.9500000  
C 13.5100000   19.5820000   19.8310000  
C 13.6350000   18.2020000   19.3880000  
C 14.5320000   17.2920000   20.0790000  
C 15.7860000   19.8670000   22.6690000  
C 15.2620000   21.1710000   22.5490000  
N 14.3230000   21.2220000   21.5140000  
O 16.4780000   21.9700000   24.4500000  
C 15.5480000   22.1950000   23.5180000  
O 14.9390000   23.2240000   23.6240000  
O 12.9370000   17.6930000   18.3620000  
O 14.5560000   15.9830000   19.7780000  
H 16.4650000   19.5060000   23.5050000  
H 16.9830000   21.1100000   24.3720000  
H 13.9600000   22.0450000   21.0530000  
H 12.4090000   18.3510000   17.8730000  
H 14.0690000   15.9130000   18.9370000  
C 12.5970000   20.5780000   19.1400000  
C 13.1590000   21.6270000   18.3700000  
C 12.3490000   22.4320000   17.5910000  
C 10.9800000   22.4810000   17.6830000  
C 10.3910000   21.5830000   18.5980000  
C 11.1700000   20.5590000   19.2830000  
C 14.4860000   22.0190000   18.0010000  
C 14.4460000   23.1220000   17.1650000  
N 13.0890000   23.3590000   16.8340000  
O 16.7650000   23.4190000   17.1500000  
C 15.5910000   23.9240000   16.7770000  
O 15.4460000   24.9710000   16.1520000  
O  9.0890000   21.7270000   18.8980000  
O 10.5850000   19.6350000   20.0830000  
H 15.4690000   21.6570000   18.4250000  
H 16.6740000   22.7810000   17.7900000  
H 12.7020000   24.1870000   16.3790000  
H  8.8810000   21.2770000   19.7700000  
H 11.1290000   18.8900000   20.0370000  
H 10.4240000   22.9870000   16.9720000  
