76
100 
C 13.0480000   10.9540000   21.2990000  
C 13.5040000   10.1170000   22.4590000  
C 14.3820000   10.6910000   23.3740000  
C 14.6890000   12.0310000   23.3660000  
C 14.2960000   12.9360000   22.4190000  
C 13.5400000   12.4780000   21.2490000  
C 15.0010000   10.1600000   24.5730000  
C 15.7020000   11.1740000   25.2230000  
N 15.4370000   12.3430000   24.4940000  
O 16.6730000    9.8460000   26.8620000  
C 16.5650000   11.1430000   26.4100000  
O 17.1000000   12.1040000   26.9470000  
O 13.3350000   13.1960000   20.2850000  
O 12.2400000   10.5720000   20.4280000  
H 13.1380000    9.1330000   22.5780000  
H 15.0370000    9.0910000   24.7440000  
H 16.1370000    9.2940000   26.1990000  
H 15.7050000   13.3370000   24.6870000  
C 14.6060000   14.3480000   22.6680000  
C 15.9200000   14.8010000   22.6190000  
C 16.1160000   16.1450000   22.6450000  
C 15.0870000   17.1550000   22.5630000  
C 13.7670000   16.7090000   22.6760000  
C 13.5690000   15.2600000   22.7000000  
C 17.1900000   14.1940000   22.4010000  
C 18.1280000   15.2730000   22.3250000  
N 17.4350000   16.4850000   22.4620000  
O 19.8880000   13.8560000   21.4550000  
C 19.5500000   15.0690000   21.9520000  
O 20.3580000   15.9310000   22.1510000  
O 12.7050000   17.5460000   22.8820000  
O 12.2750000   14.7880000   22.6960000  
H 17.3600000   13.0990000   22.5600000  
H 19.0430000   13.3520000   21.5410000  
H 17.8180000   17.4370000   22.3230000  
H 13.1370000   18.4190000   22.9310000  
H 11.7140000   15.6400000   22.6700000  
C 15.4300000   18.5880000   22.3300000  
C 16.0670000   18.8630000   21.0810000  
C 16.4360000   20.1700000   20.8530000  
C 16.2840000   21.2590000   21.6910000  
C 15.7220000   20.9660000   22.9160000  
C 15.2580000   19.6460000   23.2390000  
C 16.3660000   18.0460000   19.9340000  
C 17.1520000   18.8650000   19.1230000  
N 17.1630000   20.2200000   19.6580000  
O 17.5310000   17.3530000   17.3870000  
C 17.7580000   18.5910000   17.8490000  
O 18.4080000   19.3880000   17.2640000  
O 15.4500000   22.0480000   23.8040000  
O 14.6060000   19.5340000   24.4280000  
H 16.0700000   16.9770000   19.8310000  
H 17.1550000   16.8430000   18.0910000  
H 17.5170000   21.0290000   19.2310000  
H 15.8140000   22.8920000   23.5290000  
H 14.5650000   20.4820000   24.7990000  
C 16.7770000   22.6030000   21.2620000  
C 15.9950000   23.3300000   20.3450000  
C 16.4490000   24.5710000   19.8780000  
C 17.5990000   25.1280000   20.4380000  
C 18.4460000   24.3580000   21.2740000  
C 17.9950000   23.1200000   21.7850000  
C 14.6980000   23.1340000   19.7770000  
C 14.4170000   24.2430000   18.9960000  
N 15.5320000   25.1470000   18.9850000  
O 12.0800000   23.7140000   18.5520000  
C 13.1690000   24.3900000   18.1960000  
O 13.0330000   25.3260000   17.4130000  
O 19.6400000   24.8300000   21.6830000  
O 18.7760000   22.3630000   22.6110000  
H 13.9860000   22.2890000   19.8260000  
H 12.3150000   23.2010000   19.3350000  
H 15.5980000   25.9880000   18.4550000  
H 20.0180000   24.2110000   22.3200000  
H 18.2570000   21.5270000   22.8290000  
H 17.8510000   26.1040000   20.1830000  
