76
100 
C 10.5100000   19.1280000   26.8810000  
C 11.1450000   19.0190000   28.1890000  
C 12.4210000   18.5340000   28.3680000  
C 13.2300000   18.2110000   27.1910000  
C 12.7800000   18.2340000   25.8460000  
C 11.3860000   18.7790000   25.5720000  
C 13.3020000   18.3540000   29.5110000  
C 14.5230000   17.8340000   29.0560000  
N 14.4660000   17.7270000   27.6550000  
O 15.4500000   17.3930000   31.2190000  
C 15.6940000   17.5300000   29.8870000  
O 16.8120000   17.3520000   29.4600000  
O 10.9820000   18.8850000   24.4150000  
O  9.3740000   19.4800000   26.6680000  
H 10.6450000   19.3660000   29.0470000  
H 13.0280000   18.6100000   30.5100000  
H 14.5420000   17.2190000   31.3270000  
H 15.2850000   17.4570000   27.1240000  
C 13.7060000   17.9070000   24.8000000  
C 13.4780000   16.9240000   23.7960000  
C 14.3310000   16.6460000   22.7660000  
C 15.6400000   17.2620000   22.6190000  
C 15.8940000   18.2140000   23.6560000  
C 14.9640000   18.5600000   24.6590000  
C 12.2800000   16.1200000   23.4710000  
C 12.5880000   15.3370000   22.3710000  
N 13.8490000   15.6710000   21.8800000  
O 10.8680000   13.7640000   22.6800000  
C 11.9610000   14.1200000   21.9480000  
O 12.3470000   13.4610000   20.9840000  
O 17.0600000   18.9130000   23.5900000  
O 15.2350000   19.6280000   25.4510000  
H 11.3980000   16.0560000   24.0870000  
H 10.6270000   14.4680000   23.3310000  
H 14.2710000   15.3050000   20.9960000  
H 17.5770000   18.7080000   22.7600000  
H 16.0040000   20.1290000   25.0960000  
C 16.5110000   17.1110000   21.3780000  
C 16.0360000   17.5010000   20.1000000  
C 16.9570000   17.5640000   19.0480000  
C 18.3060000   17.1560000   19.1010000  
C 18.7630000   16.7570000   20.4240000  
C 17.8720000   16.7190000   21.4670000  
C 14.7250000   17.8820000   19.6410000  
C 14.8930000   18.1630000   18.2800000  
N 16.3150000   18.0390000   17.9390000  
O 12.6480000   18.8150000   17.8270000  
C 13.8860000   18.6470000   17.3280000  
O 14.0830000   18.8650000   16.1940000  
O 20.0460000   16.4400000   20.6800000  
O 18.2540000   16.2850000   22.7240000  
H 13.7770000   17.9500000   20.2010000  
H 12.6170000   18.4170000   18.7000000  
H 16.7110000   18.3530000   17.0780000  
H 20.6380000   16.5580000   19.8690000  
H 19.2000000   16.0090000   22.6780000  
C 19.1900000   16.9930000   17.9530000  
C 19.5770000   18.0680000   17.0900000  
C 20.4840000   17.8550000   16.0860000  
C 21.0870000   16.6240000   15.7410000  
C 20.8950000   15.5780000   16.6190000  
C 19.8690000   15.7100000   17.6110000  
C 19.1840000   19.4490000   17.0110000  
C 19.8150000   20.0340000   15.9230000  
N 20.6120000   19.0130000   15.3570000  
O 18.8280000   22.1820000   16.2020000  
C 19.6020000   21.3900000   15.4820000  
O 20.1010000   21.7350000   14.4050000  
O 21.5730000   14.4140000   16.5200000  
O 19.5920000   14.6160000   18.3570000  
H 18.6110000   19.9330000   17.7870000  
H 18.2560000   21.6370000   16.8070000  
H 21.3490000   19.1830000   14.6910000  
H 21.0650000   13.7910000   17.1070000  
H 19.0660000   14.9440000   19.1260000  
H 21.8310000   16.5700000   14.9140000  
