76
100 
C 18.9880000   12.0860000   26.2220000  
C 18.6810000   10.8640000   25.3980000  
C 18.0870000   11.0580000   24.1700000  
C 17.7760000   12.2600000   23.5860000  
C 18.0910000   13.4620000   24.1390000  
C 18.6400000   13.4690000   25.5290000  
C 17.6250000   10.0530000   23.2590000  
C 17.1060000   10.6600000   22.1260000  
N 17.1440000   12.0280000   22.3970000  
O 16.2030000    8.8320000   20.9510000  
C 16.4230000   10.1370000   20.8930000  
O 16.0600000   10.8350000   19.9230000  
O 18.8430000   14.4760000   26.1330000  
O 19.4350000   11.9630000   27.3850000  
H 18.7960000    9.7890000   25.7410000  
H 17.8170000    8.9660000   23.3900000  
H 16.5070000    8.5920000   21.8640000  
H 16.9800000   12.7980000   21.7310000  
C 17.5700000   14.6250000   23.3140000  
C 16.5440000   15.4310000   23.8290000  
C 16.0700000   16.4740000   23.1530000  
C 16.5010000   16.8040000   21.9030000  
C 17.5950000   16.1150000   21.3360000  
C 18.1650000   15.0100000   22.0110000  
C 15.7850000   15.5170000   25.0910000  
C 14.8800000   16.5400000   24.9760000  
N 15.0320000   17.1410000   23.7430000  
O 13.9960000   16.3710000   27.1390000  
C 13.8950000   16.9700000   25.9610000  
O 13.1660000   17.9610000   25.7890000  
O 18.0960000   16.5120000   20.1610000  
O 19.1650000   14.2750000   21.4190000  
H 15.8470000   14.8330000   25.9230000  
H 14.7110000   15.7330000   26.9660000  
H 14.2820000   17.7080000   23.2970000  
H 17.6730000   17.3140000   19.9110000  
H 19.5900000   14.9310000   20.7180000  
C 15.8900000   17.9580000   21.2080000  
C 16.4870000   19.2660000   21.3390000  
C 15.8130000   20.3720000   20.9150000  
C 14.4720000   20.4270000   20.4140000  
C 13.8710000   19.1570000   20.1860000  
C 14.5700000   17.9640000   20.5350000  
C 17.6830000   19.7450000   22.0600000  
C 17.6030000   21.1670000   22.0530000  
N 16.4600000   21.5470000   21.3370000  
O 19.6950000   21.5750000   23.1390000  
C 18.5850000   22.0670000   22.5970000  
O 18.3690000   23.2680000   22.6100000  
O 12.6230000   19.2140000   19.6850000  
O 13.9210000   16.7660000   20.2980000  
H 18.4730000   19.1420000   22.4730000  
H 19.6350000   20.6540000   22.8210000  
H 16.1400000   22.4740000   21.1510000  
H 12.4680000   20.0820000   19.4220000  
H 13.0250000   16.9200000   19.9610000  
C 13.7300000   21.6990000   20.0790000  
C 13.6110000   22.0870000   18.6920000  
C 13.0000000   23.3180000   18.4280000  
C 12.4390000   24.1390000   19.4050000  
C 12.5340000   23.7550000   20.6940000  
C 13.2850000   22.6260000   21.0520000  
C 13.9200000   21.5250000   17.3750000  
C 13.4960000   22.4240000   16.4000000  
N 12.9400000   23.5660000   17.0500000  
O 14.5520000   21.2600000   14.6390000  
C 13.7590000   22.2940000   14.9330000  
O 13.4920000   23.0530000   14.0390000  
O 12.1090000   24.6090000   21.6750000  
O 13.3970000   22.3300000   22.3880000  
H 14.4670000   20.6260000   17.1680000  
H 14.8200000   20.7880000   15.4540000  
H 12.4680000   24.3190000   16.6410000  
H 12.4000000   24.3070000   22.5130000  
H 13.6390000   21.3750000   22.4910000  
H 12.0730000   25.1120000   19.2090000  
