76
100 
C 15.0540000   20.1620000   29.1490000  
C 14.9820000   18.7550000   29.7250000  
C 15.1160000   17.6470000   28.9160000  
C 15.2740000   17.7740000   27.5300000  
C 15.3280000   19.0060000   26.8310000  
C 15.1330000   20.2980000   27.5680000  
C 14.9130000   16.1870000   29.1470000  
C 14.9100000   15.5730000   27.8680000  
N 15.1750000   16.5960000   26.8910000  
O 14.5390000   13.3510000   28.5510000  
C 14.4780000   14.1920000   27.5330000  
O 14.1830000   13.7920000   26.4220000  
O 15.1950000   21.3780000   27.0590000  
O 14.8460000   21.1590000   29.8280000  
H 14.7350000   18.6930000   30.7970000  
H 14.7150000   15.5620000   30.0150000  
H 14.8600000   13.8070000   29.2960000  
H 15.2880000   16.5080000   25.8990000  
C 15.4670000   18.9030000   25.3780000  
C 14.4150000   18.5110000   24.5590000  
C 14.5880000   18.2770000   23.2230000  
C 15.7760000   18.4770000   22.5130000  
C 16.8210000   19.0220000   23.3360000  
C 16.6950000   19.1570000   24.7560000  
C 13.0540000   18.2130000   24.9300000  
C 12.4710000   17.7850000   23.7140000  
N 13.4270000   17.8020000   22.6700000  
O 10.1760000   17.4810000   24.3640000  
C 11.1120000   17.2770000   23.4220000  
O 10.7300000   16.7210000   22.4130000  
O 18.0780000   19.2010000   22.8140000  
O 17.7650000   19.3880000   25.5410000  
H 12.5040000   18.2440000   25.9200000  
H 10.8250000   17.7790000   25.0730000  
H 13.4090000   17.4830000   21.6910000  
H 17.9670000   19.5190000   21.8650000  
H 18.4420000   19.5330000   24.8700000  
C 15.9850000   18.0180000   21.1050000  
C 15.6900000   18.8180000   20.0070000  
C 15.9380000   18.4090000   18.7240000  
C 16.3840000   17.1390000   18.3100000  
C 16.7840000   16.3670000   19.4260000  
C 16.6160000   16.7430000   20.7560000  
C 15.3530000   20.1790000   19.8760000  
C 15.3800000   20.5790000   18.5760000  
N 15.6950000   19.4370000   17.8140000  
O 14.7610000   22.7930000   18.8730000  
C 15.1290000   21.8610000   17.9620000  
O 15.1500000   22.0530000   16.8080000  
O 17.3620000   15.1160000   19.2950000  
O 17.1110000   15.9100000   21.7400000  
H 14.9830000   20.7630000   20.6810000  
H 14.8200000   22.2540000   19.6740000  
H 15.8620000   19.4690000   16.8240000  
H 17.4870000   14.9940000   18.3650000  
H 17.4630000   15.1890000   21.1620000  
C 16.5800000   16.6360000   16.9690000  
C 17.8370000   16.1970000   16.4760000  
C 18.0590000   15.6470000   15.2180000  
C 16.9410000   15.5850000   14.2700000  
C 15.7190000   15.9700000   14.7580000  
C 15.5100000   16.4930000   16.0090000  
C 19.1280000   16.2270000   17.1360000  
C 20.0660000   15.6920000   16.2430000  
N 19.3690000   15.3600000   15.0560000  
O 21.9050000   15.9100000   17.6500000  
C 21.5370000   15.6400000   16.3570000  
O 22.3990000   15.5370000   15.4660000  
O 14.6690000   15.8660000   13.8420000  
O 14.1930000   16.8320000   16.3850000  
H 19.3050000   16.6440000   18.0790000  
H 21.0610000   15.9170000   18.1220000  
H 19.8350000   15.0010000   14.1990000  
H 13.8660000   16.2670000   14.1630000  
H 14.2970000   17.3120000   17.2460000  
H 17.0680000   15.1350000   13.3090000  
