76
011 
C 13.6280000   11.9050000   22.9410000  
C 14.2840000   11.0780000   21.9090000  
C 15.2780000   11.6500000   21.1880000  
C 15.8070000   12.9180000   21.3650000  
C 15.3550000   13.8220000   22.3010000  
C 14.2330000   13.4090000   23.1240000  
C 16.2050000   11.0160000   20.2740000  
C 17.2010000   11.8990000   19.8750000  
N 16.8710000   13.0940000   20.5090000  
O 18.5310000   10.5900000   18.4380000  
C 18.4290000   11.8210000   19.0330000  
O 19.2650000   12.7550000   18.8980000  
O 13.7140000   14.1700000   23.9290000  
O 12.7730000   11.4080000   23.6110000  
H 13.8920000   10.1200000   21.7600000  
H 16.1710000    9.9860000   19.9960000  
H 17.7310000   10.0400000   18.6420000  
H 17.2660000   13.9590000   20.2890000  
C 15.9470000   15.1590000   22.2850000  
C 15.2520000   16.2720000   21.8020000  
C 15.8450000   17.4610000   21.6900000  
C 17.1660000   17.7270000   22.0520000  
C 17.8960000   16.6460000   22.5250000  
C 17.3230000   15.3970000   22.5910000  
C 13.9730000   16.3750000   21.1520000  
C 13.9050000   17.6770000   20.6130000  
N 15.0730000   18.3330000   20.9990000  
O 12.0840000   17.2550000   19.1430000  
C 12.9020000   18.1920000   19.6110000  
O 12.8830000   19.2960000   19.0540000  
O 19.0930000   16.8830000   23.0520000  
O 18.1390000   14.4020000   23.0900000  
H 13.1930000   15.6930000   21.0180000  
H 12.3620000   16.4690000   19.5560000  
H 15.2630000   19.2450000   20.6410000  
H 19.3260000   17.8180000   22.8920000  
H 18.9440000   14.8510000   23.2110000  
C 17.7720000   19.0850000   21.7450000  
C 17.8980000   20.0580000   22.7340000  
C 18.5650000   21.2320000   22.5180000  
C 19.0250000   21.6230000   21.2020000  
C 18.7310000   20.6690000   20.1710000  
C 18.1730000   19.4230000   20.4140000  
C 17.6350000   20.0530000   24.1630000  
C 18.0460000   21.3020000   24.6480000  
N 18.6220000   22.0500000   23.6440000  
O 17.2870000   20.9140000   26.8130000  
C 17.9880000   21.7740000   26.0730000  
O 18.5480000   22.7770000   26.4870000  
O 19.2370000   20.9440000   18.9630000  
O 18.0320000   18.5630000   19.3410000  
H 16.9030000   19.4210000   24.6450000  
H 16.9990000   20.2830000   26.1190000  
H 19.0250000   22.9860000   23.7760000  
H 19.8410000   21.6930000   19.1350000  
H 18.4340000   19.0080000   18.6230000  
C 19.4650000   23.0200000   20.9470000  
C 20.5640000   23.5530000   21.5970000  
C 20.9900000   24.8140000   21.4790000  
C 20.3580000   25.6880000   20.5700000  
C 19.2570000   25.2220000   19.8960000  
C 18.7550000   23.9630000   20.1260000  
C 21.4630000   22.9100000   22.4640000  
C 22.5810000   23.6650000   22.6950000  
N 22.2680000   24.8790000   22.0940000  
O 23.7900000   22.1080000   23.9280000  
C 23.7980000   23.3490000   23.4060000  
O 24.7290000   24.1580000   23.5920000  
O 18.6280000   26.1260000   19.0930000  
O 17.5910000   23.5460000   19.5160000  
H 21.3840000   21.9110000   22.8260000  
H 22.9480000   21.7200000   23.7310000  
H 22.9040000   25.6590000   21.9000000  
H 17.7450000   25.7390000   18.7820000  
H 17.3830000   22.6530000   19.9710000  
H 20.7260000   26.6380000   20.2700000  
