76
100 
C  9.7800000   16.1050000   25.8630000  
C 10.0650000   16.7790000   27.0980000  
C 11.1360000   17.5670000   27.2300000  
C 12.0060000   17.8810000   26.1370000  
C 11.9050000   17.2300000   24.9320000  
C 10.7160000   16.3690000   24.6080000  
C 11.7060000   18.4360000   28.2590000  
C 12.8690000   19.1200000   27.8140000  
N 13.0800000   18.6820000   26.5260000  
O 13.5030000   20.1700000   29.9500000  
C 13.6940000   20.1420000   28.5860000  
O 14.6180000   20.7720000   27.9990000  
O 10.5040000   15.8030000   23.5550000  
O  8.7610000   15.4170000   25.8260000  
H  9.3230000   16.6250000   27.8550000  
H 11.2900000   18.5760000   29.2220000  
H 12.8560000   19.4430000   30.0590000  
H 13.7860000   18.9630000   25.8980000  
C 13.0000000   17.3610000   24.0100000  
C 13.7460000   16.2530000   23.7280000  
C 14.8910000   16.3590000   22.9510000  
C 15.5030000   17.6120000   22.5950000  
C 14.6500000   18.7860000   22.7050000  
C 13.4250000   18.5830000   23.4160000  
C 13.6370000   14.9060000   24.1010000  
C 14.7010000   14.2690000   23.5380000  
N 15.5780000   15.1640000   22.8900000  
O 14.0630000   12.2010000   24.5380000  
C 14.9960000   12.8200000   23.7330000  
O 15.9980000   12.2380000   23.2770000  
O 15.0770000   19.9950000   22.3000000  
O 12.6280000   19.6790000   23.5460000  
H 12.8980000   14.4600000   24.6800000  
H 13.6380000   12.9570000   24.9320000  
H 16.4400000   15.0090000   22.4300000  
H 15.9730000   19.8990000   21.8780000  
H 13.1410000   20.4050000   23.0350000  
C 16.7050000   17.6210000   21.7560000  
C 16.5740000   17.1890000   20.4320000  
C 17.5820000   17.3520000   19.5270000  
C 18.8600000   17.8620000   19.7890000  
C 19.0080000   18.3300000   21.1380000  
C 17.9580000   18.2230000   22.1460000  
C 15.4350000   16.6510000   19.7730000  
C 15.8040000   16.5530000   18.4170000  
N 17.1300000   16.9900000   18.2770000  
O 13.6310000   15.8650000   17.6170000  
C 14.9520000   16.0130000   17.3360000  
O 15.3980000   15.8990000   16.2090000  
O 20.1130000   19.1180000   21.4310000  
O 18.0330000   18.9460000   23.2980000  
H 14.4710000   16.3660000   20.1910000  
H 13.4650000   16.2200000   18.5130000  
H 17.6320000   16.9450000   17.4550000  
H 20.5420000   19.3600000   20.6000000  
H 18.8340000   19.5370000   23.2910000  
C 19.8820000   17.9790000   18.6750000  
C 19.8140000   19.0090000   17.6650000  
C 20.5990000   19.0170000   16.5580000  
C 21.7070000   18.1880000   16.4730000  
C 21.9120000   17.2390000   17.4690000  
C 20.9870000   17.0340000   18.5360000  
C 18.8540000   20.0550000   17.4700000  
C 19.2050000   20.7210000   16.2440000  
N 20.3190000   19.9920000   15.7170000  
O 17.5090000   22.3810000   16.2750000  
C 18.5700000   21.8980000   15.5880000  
O 18.9610000   22.2990000   14.5190000  
O 23.0670000   16.4200000   17.4160000  
O 21.1150000   16.0640000   19.4730000  
H 18.0590000   20.2220000   18.1780000  
H 17.5420000   22.0230000   17.1860000  
H 20.9600000   20.4030000   15.0640000  
H 23.0950000   15.9750000   18.2710000  
H 20.3020000   16.0270000   19.9540000  
H 22.3760000   18.1600000   15.7060000  
