76
100 
C 10.8460000   12.7800000   24.1830000  
C 11.5090000   11.5860000   24.6010000  
C 12.8960000   11.5940000   24.6720000  
C 13.6280000   12.6540000   24.1950000  
C 13.1750000   13.8650000   23.6940000  
C 11.7170000   14.0510000   23.7430000  
C 13.8610000   10.5380000   24.9100000  
C 15.1560000   11.0310000   24.7720000  
N 14.9880000   12.3570000   24.3120000  
O 16.4590000    9.0900000   25.2110000  
C 16.4650000   10.4050000   24.9890000  
O 17.5420000   11.0200000   24.9380000  
O 11.2430000   15.1440000   23.5530000  
O  9.6470000   12.8170000   24.1230000  
H 10.8720000   10.7490000   24.7070000  
H 13.5360000    9.6200000   25.1870000  
H 15.5290000    8.9550000   25.2050000  
H 15.6930000   12.8640000   23.8940000  
C 14.1370000   14.7490000   23.1170000  
C 14.4670000   14.8830000   21.7770000  
C 15.3190000   15.8680000   21.4300000  
C 15.9330000   16.8090000   22.2540000  
C 15.5540000   16.6760000   23.5880000  
C 14.6700000   15.6460000   24.0520000  
C 13.9650000   14.1900000   20.6240000  
C 14.5220000   14.9320000   19.5320000  
N 15.3350000   15.9410000   19.9970000  
O 13.6400000   13.5550000   17.8360000  
C 14.3960000   14.6050000   18.1100000  
O 14.9550000   15.2510000   17.2560000  
O 16.0370000   17.5480000   24.5120000  
O 14.3470000   15.5150000   25.3980000  
H 13.2710000   13.3420000   20.5060000  
H 13.2130000   13.3380000   18.6840000  
H 15.8970000   16.5610000   19.3640000  
H 16.6720000   18.0810000   24.0440000  
H 14.9260000   16.1990000   25.8000000  
C 16.6690000   18.0100000   21.7500000  
C 16.0570000   18.9910000   20.9510000  
C 16.7540000   20.0560000   20.5670000  
C 18.1060000   20.2610000   20.7260000  
C 18.7510000   19.2880000   21.5010000  
C 18.0850000   18.1320000   21.9660000  
C 14.6390000   19.2180000   20.5950000  
C 14.6180000   20.3770000   19.8430000  
N 15.9020000   20.9190000   19.8630000  
O 12.3900000   19.9930000   19.1580000  
C 13.4210000   20.9010000   19.1580000  
O 13.3010000   21.9640000   18.5940000  
O 20.0410000   19.4140000   21.6710000  
O 18.8490000   17.1820000   22.6250000  
H 13.7900000   18.5020000   20.8760000  
H 12.8900000   19.2190000   19.4860000  
H 16.1230000   21.7680000   19.3990000  
H 20.2660000   20.2470000   21.1750000  
H 19.7720000   17.3500000   22.4180000  
C 18.8030000   21.4300000   20.1230000  
C 18.4520000   22.7650000   20.4920000  
C 19.0950000   23.8950000   20.0370000  
C 20.1170000   23.8280000   19.0710000  
C 20.5150000   22.4970000   18.7360000  
C 19.8920000   21.3220000   19.2240000  
C 17.5160000   23.2330000   21.4760000  
C 17.6650000   24.6000000   21.5840000  
N 18.6300000   25.0180000   20.7260000  
O 15.9540000   24.6760000   23.3730000  
C 16.7800000   25.3530000   22.5200000  
O 16.9060000   26.5870000   22.6490000  
O 21.5000000   22.4360000   17.7960000  
O 20.3070000   20.1240000   18.6940000  
H 16.8880000   22.5940000   22.1540000  
H 16.1230000   23.8230000   23.0670000  
H 18.8600000   25.9910000   20.5770000  
H 21.5290000   21.5100000   17.6010000  
H 19.6200000   19.5030000   19.0160000  
H 20.6250000   24.7490000   18.6440000  
