76
100 
C 18.9880000   14.4900000   27.8880000  
C 18.9600000   15.6010000   28.9090000  
C 18.2270000   16.7680000   28.7300000  
C 17.6540000   17.1240000   27.5050000  
C 17.5610000   16.2170000   26.4510000  
C 18.1340000   14.7850000   26.5810000  
C 17.9970000   17.8600000   29.6250000  
C 17.2490000   18.8450000   28.9080000  
N 17.0570000   18.3140000   27.6280000  
O 16.7960000   20.3730000   30.7360000  
C 16.6390000   20.1200000   29.3900000  
O 16.0110000   20.9260000   28.6960000  
O 18.0740000   13.9260000   25.7200000  
O 19.5190000   13.4400000   28.0800000  
H 19.4500000   15.4960000   29.8650000  
H 18.2380000   17.8000000   30.6640000  
H 17.6280000   19.8510000   30.9230000  
H 16.6460000   18.8930000   26.8270000  
C 16.9530000   16.6820000   25.1620000  
C 17.7320000   16.7980000   24.0040000  
C 17.1930000   17.2230000   22.8140000  
C 15.8030000   17.3910000   22.6230000  
C 15.0010000   17.2510000   23.7500000  
C 15.5180000   16.9150000   24.9930000  
C 19.0880000   16.4620000   23.7160000  
C 19.2980000   16.7340000   22.3770000  
N 18.1110000   17.1720000   21.8420000  
O 21.5640000   15.9350000   22.3150000  
C 20.5060000   16.4660000   21.6360000  
O 20.6190000   16.8050000   20.4830000  
O 13.6600000   17.4280000   23.5500000  
O 14.6730000   16.7590000   26.0090000  
H 19.8720000   16.1070000   24.4090000  
H 21.1720000   15.7800000   23.2140000  
H 17.8630000   17.4570000   20.8690000  
H 13.5200000   17.6140000   22.6030000  
H 13.7950000   17.0160000   25.7410000  
C 15.2550000   17.8200000   21.3370000  
C 15.2060000   16.9080000   20.2560000  
C 14.8040000   17.2950000   19.0010000  
C 14.7240000   18.6430000   18.6110000  
C 14.7070000   19.5750000   19.6790000  
C 14.9210000   19.1760000   21.0010000  
C 15.3440000   15.4300000   20.1250000  
C 15.3390000   15.0910000   18.7960000  
N 14.8830000   16.1890000   18.0700000  
O 16.2410000   12.9040000   19.1480000  
C 15.7130000   13.7920000   18.2370000  
O 15.5080000   13.4710000   17.1210000  
O 14.5380000   20.9190000   19.4230000  
O 14.7490000   20.1710000   21.9980000  
H 15.6630000   14.8090000   20.9410000  
H 16.3020000   13.2720000   20.0510000  
H 14.5350000   16.2220000   17.1530000  
H 14.3600000   21.0050000   18.4890000  
H 14.8850000   20.9430000   21.4470000  
C 14.4920000   19.1160000   17.2140000  
C 13.1390000   19.4020000   16.7850000  
C 13.0770000   19.9860000   15.5430000  
C 14.1540000   20.4660000   14.7440000  
C 15.4440000   20.1060000   15.1780000  
C 15.6030000   19.3860000   16.3670000  
C 11.8290000   19.2280000   17.3270000  
C 10.9970000   19.5840000   16.2710000  
N 11.7620000   20.1170000   15.2340000  
O  8.8540000   19.1610000   17.3230000  
C  9.5300000   19.4720000   16.1550000  
O  8.8620000   19.7680000   15.1280000  
O 16.5120000   20.5700000   14.4680000  
O 16.8770000   19.1440000   16.7910000  
H 11.4910000   18.7360000   18.3250000  
H  9.5240000   18.6900000   17.8250000  
H 11.3430000   20.5250000   14.4310000  
H 17.1210000   20.8400000   15.2170000  
H 16.8170000   18.5650000   17.5580000  
H 13.9910000   21.1360000   13.8970000  
