76
100 
C 10.4790000   13.6170000   24.6830000  
C 10.6630000   12.2170000   24.3440000  
C 11.7650000   11.8070000   23.5840000  
C 12.7000000   12.6960000   23.0330000  
C 12.7430000   14.0350000   23.4110000  
C 11.6830000   14.6170000   24.2710000  
C 12.2110000   10.4460000   23.2420000  
C 13.3570000   10.5810000   22.4180000  
N 13.5860000   11.9410000   22.3810000  
O 13.9160000    8.2720000   22.3160000  
C 14.3000000    9.5880000   21.9210000  
O 15.2950000    9.8900000   21.3000000  
O 11.6590000   15.7790000   24.6540000  
O  9.4920000   13.9680000   25.3370000  
H  9.8230000   11.5970000   24.6430000  
H 11.7510000    9.4970000   23.5650000  
H 13.0360000    8.3110000   22.6860000  
H 14.3980000   12.3370000   21.9170000  
C 13.8290000   14.8080000   22.8720000  
C 13.6210000   15.7020000   21.7390000  
C 14.6660000   16.4710000   21.3090000  
C 15.8970000   16.5620000   21.9460000  
C 16.1090000   15.7990000   23.0980000  
C 15.0610000   14.9310000   23.5580000  
C 12.4950000   15.9050000   20.8530000  
C 12.9310000   16.9560000   20.0010000  
N 14.2810000   17.1750000   20.2460000  
O 10.7700000   17.2470000   19.0480000  
C 12.0580000   17.6280000   19.0370000  
O 12.5040000   18.4700000   18.2540000  
O 17.1980000   16.2060000   23.8960000  
O 15.3720000   14.2130000   24.6870000  
H 11.5230000   15.4460000   21.1270000  
H 10.8890000   16.6480000   19.7380000  
H 14.8500000   17.8900000   19.9210000  
H 17.7230000   16.7560000   23.2560000  
H 16.3250000   14.3470000   24.8600000  
C 16.8690000   17.5980000   21.3870000  
C 16.3890000   18.9700000   21.3330000  
C 17.1540000   19.9310000   20.8160000  
C 18.4750000   19.7600000   20.3050000  
C 18.9580000   18.4610000   20.2560000  
C 18.1190000   17.3490000   20.7880000  
C 15.1590000   19.5840000   21.8190000  
C 15.2650000   20.9820000   21.5240000  
N 16.5360000   21.1870000   20.9310000  
O 13.1000000   21.4330000   22.3450000  
C 14.2290000   21.9350000   21.7770000  
O 14.2600000   23.1100000   21.4160000  
O 20.1420000   18.1410000   19.7790000  
O 18.6780000   16.1120000   20.9960000  
H 14.3910000   19.0390000   22.3170000  
H 13.1750000   20.4910000   22.1510000  
H 16.9340000   22.0440000   20.6580000  
H 20.4910000   18.9690000   19.4670000  
H 19.5850000   16.1650000   20.7210000  
C 19.3120000   20.9300000   19.9300000  
C 19.6460000   21.8880000   20.8970000  
C 20.3340000   23.0390000   20.6350000  
C 20.9400000   23.2870000   19.3960000  
C 20.7350000   22.2690000   18.4120000  
C 19.8970000   21.1640000   18.6400000  
C 19.3420000   21.9340000   22.3140000  
C 19.9300000   23.1280000   22.8610000  
N 20.4380000   23.8110000   21.7940000  
O 19.7440000   22.7130000   25.1860000  
C 20.0930000   23.6090000   24.2750000  
O 20.5780000   24.7030000   24.5210000  
O 21.3200000   22.4400000   17.1710000  
O 19.6340000   20.3740000   17.5820000  
H 18.9250000   21.0620000   22.8720000  
H 19.6330000   22.0030000   24.5440000  
H 20.8360000   24.6920000   21.9420000  
H 21.7120000   23.2900000   17.2290000  
H 18.6910000   20.0230000   17.5170000  
H 21.6720000   24.0570000   19.2620000  
