76
100 
C 16.9230000   14.3030000   28.4850000  
C 17.2600000   15.4890000   29.2630000  
C 17.1970000   16.7390000   28.7430000  
C 17.0740000   16.9610000   27.3860000  
C 16.8240000   15.9490000   26.4860000  
C 16.7900000   14.5430000   26.9250000  
C 17.3400000   18.0350000   29.3090000  
C 17.2450000   18.9940000   28.3420000  
N 17.1030000   18.2980000   27.0980000  
O 17.3390000   20.7830000   29.8820000  
C 17.2030000   20.4390000   28.6030000  
O 17.0320000   21.2260000   27.7500000  
O 16.6970000   13.5320000   26.2570000  
O 16.7750000   13.2530000   29.0370000  
H 17.3830000   15.3160000   30.3440000  
H 17.4620000   18.2410000   30.3660000  
H 17.5970000   19.9370000   30.3550000  
H 16.8970000   18.7940000   26.2840000  
C 16.6580000   16.2560000   25.0630000  
C 17.6650000   16.8860000   24.2190000  
C 17.3510000   17.4450000   22.9980000  
C 16.0480000   17.3130000   22.4130000  
C 15.1100000   16.5820000   23.1810000  
C 15.3600000   16.1840000   24.4950000  
C 19.0770000   16.9840000   24.3710000  
C 19.5820000   17.5840000   23.1720000  
N 18.4510000   17.9830000   22.3680000  
O 21.8940000   17.5430000   23.7660000  
C 21.0060000   17.9170000   22.8850000  
O 21.3820000   18.4950000   21.8630000  
O 13.8770000   16.5180000   22.6780000  
O 14.3770000   15.5360000   25.1310000  
H 19.6250000   16.6500000   25.2570000  
H 21.3670000   17.0560000   24.3930000  
H 18.4000000   18.6380000   21.5310000  
H 13.9360000   16.7570000   21.7090000  
H 13.6110000   15.5370000   24.5260000  
C 15.7520000   17.8540000   21.0630000  
C 15.9260000   17.0670000   19.9460000  
C 15.4170000   17.5180000   18.7180000  
C 14.8420000   18.8220000   18.4840000  
C 14.6740000   19.6410000   19.6450000  
C 15.1250000   19.1550000   20.9280000  
C 16.7450000   15.8970000   19.6820000  
C 16.8310000   15.8670000   18.2830000  
N 16.0300000   16.8790000   17.6790000  
O 18.4950000   14.2120000   18.3330000  
C 17.7340000   14.9390000   17.4930000  
O 17.6910000   14.7870000   16.2870000  
O 14.0940000   20.8520000   19.5240000  
O 14.7810000   19.9050000   22.0200000  
H 17.2900000   15.2650000   20.3520000  
H 18.3780000   14.6920000   19.1430000  
H 15.9030000   17.0520000   16.6930000  
H 13.8320000   20.9940000   18.6180000  
H 14.3220000   20.6740000   21.6540000  
C 14.3010000   19.3090000   17.2200000  
C 13.0030000   18.9160000   16.8550000  
C 12.4630000   19.3850000   15.6820000  
C 13.1560000   20.2220000   14.8470000  
C 14.5110000   20.5500000   15.1310000  
C 15.1160000   20.0450000   16.3140000  
C 11.9470000   18.2130000   17.5530000  
C 10.8710000   18.0850000   16.6610000  
N 11.3020000   18.7940000   15.4590000  
O  9.5210000   16.8080000   18.0500000  
C  9.5930000   17.3170000   16.8020000  
O  8.8450000   17.0670000   15.9460000  
O 15.1950000   21.3200000   14.2140000  
O 16.4280000   20.2690000   16.5200000  
H 11.9450000   17.8910000   18.5620000  
H 10.3320000   17.0320000   18.5100000  
H 10.8440000   18.7100000   14.5600000  
H 15.7610000   21.8140000   14.7810000  
H 16.5360000   19.9120000   17.4090000  
H 12.6560000   20.5870000   13.9590000  
