76
100 
C 19.6000000   11.6170000   24.5590000  
C 18.8190000   10.5380000   23.9170000  
C 17.6840000   10.8700000   23.1810000  
C 17.2440000   12.1770000   23.0310000  
C 17.8950000   13.3100000   23.5740000  
C 19.1860000   13.0920000   24.2510000  
C 16.6650000   10.0310000   22.5830000  
C 15.6820000   10.8750000   22.0710000  
N 16.1010000   12.1420000   22.3220000  
O 14.3170000    9.1110000   21.1610000  
C 14.4960000   10.4500000   21.2850000  
O 13.7000000   11.1930000   20.7030000  
O 19.8190000   14.0650000   24.6990000  
O 20.6270000   11.2860000   25.1380000  
H 19.3100000    9.5490000   23.9760000  
H 16.6940000    8.9470000   22.5140000  
H 15.0640000    8.6420000   21.6190000  
H 15.7030000   12.9500000   21.8830000  
C 17.3660000   14.6130000   23.2690000  
C 16.4390000   15.2510000   24.1530000  
C 15.8890000   16.5140000   23.7710000  
C 16.1370000   17.1660000   22.5520000  
C 17.1240000   16.5310000   21.7170000  
C 17.7350000   15.3160000   22.1040000  
C 16.0010000   15.0070000   25.5030000  
C 15.1850000   16.1250000   25.8160000  
N 15.0800000   17.0050000   24.7810000  
O 14.7230000   15.2940000   28.0090000  
C 14.4760000   16.2850000   27.1680000  
O 13.7870000   17.2730000   27.4770000  
O 17.4560000   17.2020000   20.6060000  
O 18.7660000   14.8340000   21.2610000  
H 16.2170000   14.1380000   26.0670000  
H 15.2240000   14.6970000   27.4180000  
H 14.7790000   17.9000000   24.8350000  
H 17.0930000   18.0640000   20.6740000  
H 18.7460000   15.4520000   20.5710000  
C 15.5510000   18.4520000   22.1370000  
C 16.4210000   19.5350000   21.9590000  
C 15.9790000   20.6520000   21.3110000  
C 14.6430000   20.8430000   20.8030000  
C 13.7910000   19.7410000   20.9410000  
C 14.2080000   18.5200000   21.5290000  
C 17.7690000   19.8850000   22.3760000  
C 18.0530000   21.1420000   21.8290000  
N 16.9380000   21.6680000   21.1960000  
O 20.3150000   21.3660000   22.6110000  
C 19.2970000   21.9580000   21.9960000  
O 19.3920000   23.1590000   21.6650000  
O 12.5100000   19.8540000   20.4740000  
O 13.3700000   17.4870000   21.5290000  
H 18.4380000   19.2210000   22.9540000  
H 19.9170000   20.5240000   22.8690000  
H 16.7820000   22.5800000   20.7550000  
H 12.3170000   20.6770000   19.9970000  
H 12.4490000   17.8560000   21.4010000  
C 14.2340000   22.1000000   20.0070000  
C 13.8730000   22.1250000   18.6510000  
C 13.4800000   23.3140000   18.0400000  
C 13.3180000   24.5100000   18.7640000  
C 13.5270000   24.5160000   20.1350000  
C 13.8910000   23.2370000   20.7290000  
C 13.9310000   21.1040000   17.5520000  
C 13.5210000   21.7620000   16.3900000  
N 13.1410000   23.1270000   16.7270000  
O 14.2490000   20.0080000   14.8720000  
C 13.5980000   21.1990000   15.0570000  
O 13.1660000   21.8110000   14.1450000  
O 13.5550000   25.6670000   20.8740000  
O 14.0170000   23.2550000   22.1020000  
H 14.2110000   20.0290000   17.6060000  
H 14.4470000   19.6810000   15.7070000  
H 12.7550000   23.7960000   16.0720000  
H 13.5180000   25.3780000   21.7630000  
H 14.6160000   22.5410000   22.3090000  
H 13.1740000   25.4740000   18.2890000  
