76
100 
C 17.3970000   14.1070000   28.1640000  
C 17.7990000   15.2700000   29.0490000  
C 17.7790000   16.5360000   28.5350000  
C 17.3090000   16.8680000   27.2450000  
C 16.9160000   15.9220000   26.3270000  
C 16.9050000   14.4550000   26.6850000  
C 18.2830000   17.7200000   29.1010000  
C 18.1030000   18.7840000   28.2140000  
N 17.6170000   18.1770000   27.0320000  
O 18.8740000   20.5700000   29.4800000  
C 18.4600000   20.2070000   28.2700000  
O 18.4520000   20.9590000   27.2990000  
O 16.6640000   13.5660000   25.8950000  
O 17.4750000   12.9600000   28.5800000  
H 18.1010000   14.9750000   30.0560000  
H 18.7440000   17.7630000   30.0170000  
H 18.4740000   19.7610000   29.9430000  
H 17.5110000   18.6130000   26.1860000  
C 16.6320000   16.4210000   25.0330000  
C 17.6680000   16.5500000   24.1190000  
C 17.3450000   16.9800000   22.8640000  
C 16.0440000   17.3980000   22.4960000  
C 15.0440000   17.4200000   23.4540000  
C 15.3250000   16.8670000   24.7140000  
C 19.0770000   16.1460000   24.1060000  
C 19.5020000   16.4590000   22.8050000  
N 18.4310000   16.9700000   22.0590000  
O 21.8070000   15.6840000   22.8700000  
C 20.8010000   16.2100000   22.1640000  
O 20.9260000   16.5230000   20.9770000  
O 13.8400000   17.9850000   23.1700000  
O 14.3600000   16.8900000   25.6920000  
H 19.6490000   15.4920000   24.8690000  
H 21.4560000   15.6730000   23.8090000  
H 18.3900000   17.1300000   21.0400000  
H 13.8940000   18.3830000   22.2800000  
H 13.6380000   17.4020000   25.2730000  
C 15.8230000   17.9450000   21.0980000  
C 15.5700000   17.0550000   20.0050000  
C 15.1200000   17.5420000   18.8270000  
C 15.0280000   18.8870000   18.4230000  
C 15.2970000   19.8040000   19.5050000  
C 15.6630000   19.3150000   20.8010000  
C 15.5970000   15.6050000   19.9660000  
C 15.2560000   15.3080000   18.6000000  
N 14.8010000   16.5170000   17.9740000  
O 15.4490000   13.0110000   19.0000000  
C 15.3290000   13.9190000   18.0860000  
O 15.1950000   13.7320000   16.9250000  
O 15.1680000   21.1760000   19.3680000  
O 15.8300000   20.2040000   21.7730000  
H 15.9140000   14.9670000   20.7820000  
H 15.6510000   13.4560000   19.7830000  
H 14.3820000   16.6580000   17.0950000  
H 14.6180000   21.4230000   18.6090000  
H 15.9620000   21.0970000   21.3920000  
C 14.4810000   19.3130000   17.1390000  
C 13.1850000   19.8400000   16.9970000  
C 12.5530000   19.8850000   15.7770000  
C 13.1790000   19.4570000   14.6400000  
C 14.5660000   19.0190000   14.7450000  
C 15.1700000   18.8770000   16.0040000  
C 12.1780000   20.0810000   17.9630000  
C 11.0010000   20.4520000   17.3120000  
N 11.2600000   20.3230000   15.9410000  
O  9.7260000   21.0550000   19.2050000  
C  9.7130000   20.8810000   17.8720000  
O  8.7260000   21.0190000   17.2510000  
O 15.0820000   18.4610000   13.6610000  
O 16.4070000   18.2750000   16.1430000  
H 12.3680000   19.9070000   19.0630000  
H 10.6520000   21.2340000   19.4230000  
H 10.6750000   20.4100000   15.1590000  
H 16.0210000   18.2390000   13.8360000  
H 16.6220000   18.3960000   17.0630000  
H 12.7030000   19.5770000   13.7120000  
