76
100 
C 14.7350000   20.7000000   28.0690000  
C 14.9860000   19.8230000   29.2170000  
C 15.2060000   18.4760000   29.0580000  
C 15.3460000   17.9110000   27.7700000  
C 15.1120000   18.6050000   26.6010000  
C 14.5540000   19.9700000   26.7130000  
C 15.2830000   17.3370000   29.9360000  
C 15.6710000   16.1700000   29.1870000  
N 15.6210000   16.5760000   27.8920000  
O 15.8870000   14.6620000   31.0060000  
C 16.0210000   14.8310000   29.6780000  
O 16.3850000   13.8990000   29.0520000  
O 14.0060000   20.4430000   25.7500000  
O 14.6170000   21.9320000   28.1390000  
H 14.9620000   20.3830000   30.1290000  
H 15.2330000   17.4320000   30.9870000  
H 15.7820000   15.5720000   31.3290000  
H 15.7190000   15.9300000   27.1300000  
C 15.3480000   17.8160000   25.3790000  
C 14.2440000   17.5550000   24.4910000  
C 14.4880000   17.3440000   23.2140000  
C 15.7380000   17.2130000   22.5270000  
C 16.8210000   17.3980000   23.4150000  
C 16.6750000   17.6430000   24.8130000  
C 12.8540000   17.8440000   24.6560000  
C 12.3330000   17.9440000   23.3160000  
N 13.3300000   17.5640000   22.4950000  
O 10.0270000   18.4390000   23.8050000  
C 10.9670000   18.2440000   22.8730000  
O 10.6080000   18.2330000   21.7150000  
O 18.1060000   17.1950000   22.9680000  
O 17.6710000   18.0000000   25.6110000  
H 12.3830000   18.0670000   25.6270000  
H 10.4410000   18.5610000   24.7040000  
H 13.3070000   17.3540000   21.4950000  
H 17.9890000   16.4290000   22.3510000  
H 18.4720000   17.9780000   25.0870000  
C 15.8860000   17.1620000   21.0670000  
C 16.4160000   18.2380000   20.3270000  
C 16.4750000   18.2150000   18.9730000  
C 15.9650000   17.1900000   18.1460000  
C 15.5210000   16.0510000   18.8640000  
C 15.4330000   16.1070000   20.2570000  
C 17.0480000   19.4520000   20.7420000  
C 17.3380000   20.1360000   19.5790000  
N 17.0360000   19.3880000   18.4590000  
O 18.2040000   22.0540000   20.6530000  
C 18.0120000   21.4670000   19.4450000  
O 18.3880000   21.9570000   18.4150000  
O 15.1870000   14.8950000   18.2840000  
O 14.9130000   14.9910000   20.8930000  
H 17.1200000   19.7890000   21.8090000  
H 17.6740000   21.5760000   21.3250000  
H 17.1620000   19.6040000   17.4620000  
H 15.6080000   14.8400000   17.3710000  
H 14.7410000   14.3840000   20.1750000  
C 16.0260000   17.2820000   16.6480000  
C 17.1460000   16.7950000   15.9150000  
C 17.1470000   16.5570000   14.5940000  
C 16.0540000   16.9490000   13.8020000  
C 14.9400000   17.4700000   14.4770000  
C 14.8620000   17.5680000   15.8980000  
C 18.3260000   16.1810000   16.3730000  
C 19.1340000   15.8540000   15.3230000  
N 18.3490000   15.9740000   14.2050000  
O 21.0650000   15.2390000   16.6240000  
C 20.5510000   15.3320000   15.3980000  
O 21.1780000   14.9940000   14.4020000  
O 13.8170000   17.8140000   13.7290000  
O 13.6880000   17.7880000   16.4820000  
H 18.5630000   16.0100000   17.3730000  
H 20.4430000   15.7940000   17.0730000  
H 18.6190000   15.5260000   13.3420000  
H 13.3530000   18.3650000   14.3300000  
H 13.7710000   17.6990000   17.4180000  
H 15.8790000   16.7950000   12.7270000  
