76
100 
C 20.3700000   14.4190000   26.6970000  
C 20.8910000   13.2320000   25.9410000  
C 20.5620000   13.1590000   24.5710000  
C 19.6330000   13.9790000   23.9430000  
C 19.0940000   15.0660000   24.5590000  
C 19.4060000   15.4230000   25.9570000  
C 20.9840000   12.1600000   23.6450000  
C 20.2960000   12.4020000   22.4370000  
N 19.4630000   13.4930000   22.6790000  
O 21.0130000   10.2670000   21.5010000  
C 20.3590000   11.4360000   21.3160000  
O 19.7830000   11.5940000   20.2630000  
O 19.0260000   16.4120000   26.5110000  
O 20.6930000   14.7140000   27.8310000  
H 21.5140000   12.5880000   26.5110000  
H 21.5650000   11.3160000   23.9280000  
H 21.1630000   10.2180000   22.4360000  
H 18.8590000   13.9100000   21.8940000  
C 18.0650000   15.7130000   23.7880000  
C 16.7290000   15.4190000   24.0060000  
C 15.7650000   16.1290000   23.2890000  
C 16.0470000   17.1180000   22.3960000  
C 17.4200000   17.4970000   22.3280000  
C 18.4560000   16.8010000   23.0110000  
C 16.0060000   14.4870000   24.8880000  
C 14.6170000   14.7680000   24.6410000  
N 14.5030000   15.7320000   23.5810000  
O 13.8120000   13.3380000   26.3980000  
C 13.4790000   14.0280000   25.2790000  
O 12.3410000   14.1900000   24.7890000  
O 17.7130000   18.6220000   21.5780000  
O 19.7960000   17.1290000   22.8070000  
H 16.4810000   13.8450000   25.6810000  
H 14.7600000   13.5240000   26.6510000  
H 13.6640000   15.8050000   23.0440000  
H 17.3470000   18.4840000   20.6870000  
H 19.9140000   17.8470000   22.1920000  
C 14.9920000   17.8160000   21.5770000  
C 14.4030000   19.0480000   22.0680000  
C 13.7170000   19.8630000   21.1690000  
C 13.5600000   19.5910000   19.8050000  
C 13.9530000   18.3090000   19.3640000  
C 14.7880000   17.4720000   20.1790000  
C 14.5560000   19.7920000   23.3000000  
C 13.9760000   20.9990000   23.0070000  
N 13.5390000   21.1050000   21.6670000  
O 14.6220000   22.0620000   25.1230000  
C 13.8400000   22.0710000   24.0270000  
O 13.2170000   23.0550000   23.7850000  
O 13.7080000   17.9500000   18.1420000  
O 15.2790000   16.3750000   19.6590000  
H 14.9390000   19.5580000   24.3270000  
H 15.1900000   21.2280000   25.0810000  
H 13.2210000   21.9240000   21.2700000  
H 13.2930000   18.6960000   17.6650000  
H 15.4080000   16.5360000   18.7030000  
C 12.7210000   20.4750000   18.9700000  
C 13.2650000   21.1350000   17.9120000  
C 12.5900000   22.0060000   17.0940000  
C 11.2290000   22.1870000   17.2080000  
C 10.6210000   21.5660000   18.3070000  
C 11.3230000   20.7020000   19.2160000  
C 14.6570000   21.2040000   17.4930000  
C 14.7070000   22.0310000   16.3430000  
N 13.4130000   22.4470000   16.0460000  
O 17.0630000   22.1240000   16.2060000  
C 15.9140000   22.5050000   15.6650000  
O 15.8880000   23.2990000   14.7660000  
O  9.2560000   21.7770000   18.5310000  
O 10.5180000   20.0080000   20.0380000  
H 15.4570000   20.6240000   17.9660000  
H 16.9390000   21.5250000   16.8820000  
H 13.1530000   23.1330000   15.2960000  
H  8.8950000   21.1760000   19.2100000  
H 10.9530000   19.1830000   20.1340000  
H 10.7320000   22.8750000   16.6230000  
