76
100 
C 19.9090000   13.0300000   25.8530000  
C 19.8880000   11.7320000   25.1460000  
C 19.1050000   11.5270000   24.0710000  
C 18.2790000   12.5110000   23.5740000  
C 18.2350000   13.8490000   24.0130000  
C 19.0080000   14.1830000   25.2190000  
C 18.7300000   10.3360000   23.3020000  
C 17.7480000   10.6400000   22.3260000  
N 17.4990000   12.0220000   22.5570000  
O 17.7810000    8.5060000   21.4260000  
C 17.1600000    9.6800000   21.3660000  
O 16.1970000    9.8450000   20.6300000  
O 19.0680000   15.3190000   25.6100000  
O 20.4900000   13.2220000   26.9290000  
H 20.4470000   10.9600000   25.5980000  
H 19.2530000    9.3870000   23.4840000  
H 18.3950000    8.7670000   22.1260000  
H 16.7330000   12.5430000   22.0900000  
C 17.3940000   14.8870000   23.2500000  
C 16.1090000   15.1650000   23.7280000  
C 15.4590000   16.2750000   23.3160000  
C 15.9260000   17.1440000   22.2700000  
C 17.1760000   16.7680000   21.6800000  
C 17.9090000   15.6370000   22.1710000  
C 15.3550000   14.6650000   24.8450000  
C 14.1700000   15.4120000   24.8680000  
N 14.2770000   16.4690000   23.9740000  
O 13.2380000   14.0910000   26.6630000  
C 13.1540000   15.2650000   25.8660000  
O 12.1000000   15.9490000   25.9600000  
O 17.7340000   17.5430000   20.6420000  
O 19.1310000   15.4170000   21.6340000  
H 15.7070000   14.0280000   25.6390000  
H 14.0420000   13.7080000   26.2570000  
H 13.7650000   17.3830000   23.9950000  
H 16.9510000   17.8900000   20.1640000  
H 19.2970000   16.2170000   20.9470000  
C 15.1100000   18.2720000   21.8230000  
C 15.6650000   19.5860000   21.9540000  
C 15.1150000   20.6680000   21.3170000  
C 13.8940000   20.6440000   20.6340000  
C 13.4010000   19.3270000   20.4120000  
C 13.9580000   18.2000000   21.0430000  
C 16.9170000   20.0230000   22.4340000  
C 16.9930000   21.3790000   22.1540000  
N 15.8620000   21.8030000   21.5410000  
O 19.1970000   21.7270000   23.0180000  
C 18.1690000   22.3070000   22.3970000  
O 18.2360000   23.3490000   21.8440000  
O 12.3240000   19.1310000   19.5780000  
O 13.3700000   16.9800000   20.8750000  
H 17.6970000   19.3640000   22.7630000  
H 19.1210000   20.7460000   23.0140000  
H 15.7330000   22.7330000   21.2720000  
H 11.9530000   19.9670000   19.3470000  
H 12.7570000   16.9830000   20.1370000  
C 13.3030000   21.7840000   19.9200000  
C 13.8000000   22.1040000   18.6120000  
C 13.2320000   23.1140000   17.8480000  
C 12.1530000   23.8680000   18.2380000  
C 11.6010000   23.5470000   19.4880000  
C 12.1350000   22.4670000   20.2840000  
C 14.9540000   21.6490000   17.9150000  
C 14.9650000   22.3850000   16.7150000  
N 13.8340000   23.1760000   16.6180000  
O 16.8760000   21.2530000   15.9440000  
C 16.0190000   22.2690000   15.6590000  
O 16.0550000   22.9970000   14.6920000  
O 10.6490000   24.3700000   19.9900000  
O 11.5650000   22.2330000   21.5070000  
H 15.6740000   20.9650000   18.2760000  
H 16.4940000   20.8330000   16.7890000  
H 13.5120000   23.7580000   15.8900000  
H 10.3350000   24.1100000   20.9260000  
H 12.1590000   21.4420000   21.7390000  
H 11.8610000   24.6540000   17.6040000  
