76
100 
C 20.4790000   14.3590000   26.2010000  
C 20.4180000   12.8600000   26.0900000  
C 19.4980000   12.3650000   25.2630000  
C 18.4880000   13.0710000   24.5620000  
C 18.6360000   14.4370000   24.3500000  
C 19.5850000   15.1850000   25.2130000  
C 19.1430000   11.0360000   24.9510000  
C 18.1400000   10.9460000   23.9840000  
N 17.7810000   12.2490000   23.7230000  
O 17.8310000    8.5670000   24.1430000  
C 17.5200000    9.6970000   23.4460000  
O 16.7150000    9.6530000   22.5550000  
O 19.7250000   16.4090000   25.0650000  
O 21.2470000   14.9070000   26.9840000  
H 21.1190000   12.2430000   26.6100000  
H 19.7220000   10.1840000   25.3120000  
H 18.5220000    8.8050000   24.7370000  
H 17.2190000   12.5160000   22.9270000  
C 17.7860000   15.1150000   23.3540000  
C 16.4820000   15.4930000   23.6680000  
C 15.7660000   16.1810000   22.7260000  
C 16.2520000   16.6450000   21.5500000  
C 17.5920000   16.2350000   21.2010000  
C 18.3750000   15.5090000   22.0820000  
C 15.6270000   15.3040000   24.8010000  
C 14.3900000   15.9020000   24.4010000  
N 14.5380000   16.5420000   23.1890000  
O 13.4230000   15.4310000   26.4600000  
C 13.1690000   15.9030000   25.2690000  
O 12.0830000   16.2920000   24.9300000  
O 18.0670000   16.4130000   19.9240000  
O 19.6630000   15.1000000   21.6780000  
H 15.8010000   14.6540000   25.6520000  
H 14.3440000   15.2090000   26.5560000  
H 13.8110000   16.8760000   22.6670000  
H 17.4050000   17.0410000   19.5320000  
H 19.8520000   15.6950000   20.9160000  
C 15.4230000   17.5470000   20.6670000  
C 14.9590000   18.7440000   21.2850000  
C 14.1850000   19.6070000   20.5480000  
C 14.0720000   19.6320000   19.1130000  
C 14.6450000   18.4740000   18.5130000  
C 15.2780000   17.4290000   19.2330000  
C 14.9860000   19.3590000   22.6160000  
C 14.3600000   20.5970000   22.5290000  
N 13.8260000   20.6590000   21.2500000  
O 15.0790000   21.3620000   24.6360000  
C 14.2270000   21.5790000   23.5950000  
O 13.4990000   22.5870000   23.5530000  
O 14.4220000   18.2590000   17.1420000  
O 15.5400000   16.2560000   18.5600000  
H 15.3780000   18.9410000   23.5320000  
H 15.4040000   20.4980000   24.4250000  
H 13.3470000   21.4980000   20.8500000  
H 14.3220000   19.1350000   16.7110000  
H 15.2860000   16.3900000   17.6470000  
C 13.3530000   20.7860000   18.3910000  
C 13.9950000   22.0510000   18.3280000  
C 13.4520000   23.1970000   17.7400000  
C 12.1660000   23.0970000   17.3030000  
C 11.4530000   21.9180000   17.2970000  
C 12.0790000   20.7440000   17.8540000  
C 15.3290000   22.4930000   18.8410000  
C 15.5250000   23.8140000   18.3810000  
N 14.3390000   24.2170000   17.7930000  
O 17.8360000   23.9300000   18.9840000  
C 16.7620000   24.6160000   18.4980000  
O 16.8580000   25.7570000   18.1760000  
O 10.2280000   21.7920000   16.7360000  
O 11.4750000   19.5090000   17.8440000  
H 16.0000000   21.9270000   19.4690000  
H 17.5400000   23.0400000   19.0310000  
H 14.1570000   25.1970000   17.5630000  
H  9.9590000   20.9040000   16.6310000  
H 11.9340000   18.7660000   18.3410000  
H 11.7500000   24.0140000   16.8780000  
