76
100 
C 11.2240000   11.2810000   22.5770000  
C 12.2630000   10.4000000   23.0930000  
C 13.5740000   10.8320000   23.2010000  
C 13.9830000   12.1230000   22.9700000  
C 13.1400000   13.1130000   22.4950000  
C 11.6850000   12.7660000   22.1950000  
C 14.7630000   10.1620000   23.7040000  
C 15.8070000   11.0180000   23.6900000  
N 15.3290000   12.2310000   23.1780000  
O 17.5510000    9.4530000   24.5680000  
C 17.2060000   10.7520000   24.1460000  
O 18.0820000   11.6030000   24.2160000  
O 10.8960000   13.5470000   21.7210000  
O 10.0160000   10.9210000   22.4540000  
H 11.9980000    9.3600000   23.3660000  
H 14.8380000    9.1500000   24.1210000  
H 16.7700000    8.9800000   24.4070000  
H 15.7970000   13.0740000   23.0700000  
C 13.6990000   14.4440000   22.3880000  
C 14.4250000   14.8910000   21.3030000  
C 15.0800000   16.0510000   21.2810000  
C 15.1880000   16.9980000   22.3380000  
C 14.3700000   16.5910000   23.5070000  
C 13.5970000   15.3600000   23.4550000  
C 14.7590000   14.2450000   20.0770000  
C 15.6520000   15.0600000   19.3420000  
N 15.6790000   16.2340000   20.0850000  
O 15.9440000   13.5090000   17.6140000  
C 16.2850000   14.6990000   18.0590000  
O 16.9600000   15.4820000   17.4210000  
O 14.2760000   17.3740000   24.6580000  
O 12.6410000   15.0260000   24.4190000  
H 14.4330000   13.2230000   19.7610000  
H 15.4880000   13.1080000   18.3610000  
H 16.1660000   17.1450000   19.9030000  
H 15.2320000   17.3490000   25.0230000  
H 12.2460000   15.7480000   24.8860000  
C 15.9680000   18.3090000   22.1990000  
C 15.7020000   19.2170000   21.1660000  
C 16.4840000   20.3280000   21.0070000  
C 17.4670000   20.7400000   21.9520000  
C 17.6930000   19.8730000   23.0680000  
C 16.9880000   18.6550000   23.1910000  
C 14.7130000   19.2040000   20.2250000  
C 14.9190000   20.3410000   19.4610000  
N 16.0790000   21.0220000   19.9250000  
O 13.2220000   19.9060000   17.8560000  
C 14.1980000   20.7680000   18.2610000  
O 14.4430000   21.7560000   17.6130000  
O 18.5680000   20.2390000   24.0130000  
O 17.2250000   17.8790000   24.2340000  
H 13.9850000   18.4330000   20.0460000  
H 13.2900000   19.0430000   18.3490000  
H 16.6070000   21.7090000   19.4770000  
H 18.8840000   21.1410000   23.7660000  
H 17.7540000   18.4680000   24.8240000  
C 18.5040000   21.7640000   21.6540000  
C 18.1190000   23.0880000   21.7100000  
C 18.9680000   24.1560000   21.5130000  
C 20.2680000   23.9080000   21.0940000  
C 20.7210000   22.5940000   21.1080000  
C 19.8630000   21.5300000   21.4240000  
C 16.8170000   23.6060000   21.9280000  
C 17.0150000   25.0080000   21.9470000  
N 18.2830000   25.3040000   21.6130000  
O 14.7850000   25.7010000   22.0660000  
C 16.0250000   26.1630000   22.0030000  
O 16.3320000   27.3390000   21.8670000  
O 22.0590000   22.4540000   20.7370000  
O 20.4370000   20.2950000   21.4730000  
H 15.8590000   23.1130000   21.9750000  
H 14.9090000   24.7320000   21.8340000  
H 18.6170000   26.2530000   21.5390000  
H 22.4140000   21.9320000   21.4260000  
H 19.8020000   19.5730000   21.4780000  
H 20.9770000   24.7310000   20.8180000  
