76
100 
C 12.8480000   10.6060000   22.2470000  
C 13.3250000   10.2290000   23.5990000  
C 14.0220000   11.1170000   24.3390000  
C 14.2720000   12.3650000   23.8700000  
C 13.8720000   12.9100000   22.6880000  
C 13.0400000   12.0980000   21.7800000  
C 14.4560000   11.0640000   25.6760000  
C 15.1430000   12.2790000   25.9140000  
N 15.0220000   13.0360000   24.7540000  
O 15.7640000   11.8240000   28.1090000  
C 15.8920000   12.7340000   27.1240000  
O 16.3130000   13.8760000   27.2260000  
O 12.5190000   12.4700000   20.7760000  
O 12.3900000    9.8370000   21.3870000  
H 13.0720000    9.2010000   23.9960000  
H 14.3030000   10.2120000   26.2930000  
H 15.1020000   11.1480000   27.7480000  
H 15.4350000   13.9550000   24.6150000  
C 14.2480000   14.2480000   22.3930000  
C 15.4870000   14.5370000   21.8520000  
C 15.8990000   15.8310000   21.6820000  
C 15.1910000   16.9560000   22.0550000  
C 13.9310000   16.6900000   22.5260000  
C 13.4560000   15.3950000   22.7580000  
C 16.5550000   13.6890000   21.4430000  
C 17.6370000   14.5150000   21.0370000  
N 17.1600000   15.8440000   21.1180000  
O 19.3940000   12.8970000   20.6530000  
C 18.9830000   14.1630000   20.5030000  
O 19.7140000   15.0010000   20.0070000  
O 13.2030000   17.8010000   22.8830000  
O 12.2590000   15.1960000   23.4170000  
H 16.4980000   12.6900000   21.5050000  
H 18.7360000   12.5190000   21.3090000  
H 17.7320000   16.6250000   20.7860000  
H 13.7290000   18.6090000   23.0820000  
H 11.7780000   15.9880000   23.5160000  
C 15.7210000   18.3160000   21.7010000  
C 15.8160000   18.7230000   20.3480000  
C 16.3950000   19.9150000   20.0510000  
C 16.8720000   20.8260000   21.0010000  
C 16.6330000   20.5390000   22.3780000  
C 16.0700000   19.2810000   22.7210000  
C 15.4790000   18.1060000   19.1520000  
C 15.6080000   19.1010000   18.1570000  
N 16.2910000   20.1640000   18.7170000  
O 14.6710000   17.7050000   16.4310000  
C 15.1680000   18.8630000   16.7240000  
O 15.1890000   19.6960000   15.8520000  
O 17.0100000   21.3530000   23.4380000  
O 16.0170000   18.8810000   24.0440000  
H 15.1150000   17.0770000   19.0710000  
H 14.6150000   17.2850000   17.2750000  
H 16.5620000   21.0650000   18.2920000  
H 17.5380000   22.1010000   23.1310000  
H 16.1990000   19.6780000   24.5360000  
C 17.5730000   22.0610000   20.6670000  
C 17.0460000   23.3230000   20.9010000  
C 17.7300000   24.4660000   20.6040000  
C 19.0120000   24.4340000   20.0250000  
C 19.6120000   23.2250000   19.8140000  
C 18.9240000   22.0140000   20.2010000  
C 15.7210000   23.7100000   21.4210000  
C 15.6570000   25.0790000   21.3860000  
N 16.9410000   25.5380000   20.9810000  
O 13.5720000   25.2340000   22.5050000  
C 14.6060000   25.9360000   21.9350000  
O 14.6780000   27.1670000   21.8550000  
O 20.8700000   23.1380000   19.3590000  
O 19.5110000   20.8940000   19.7950000  
H 14.9110000   23.0880000   21.7980000  
H 13.9330000   24.3530000   22.4870000  
H 17.1440000   26.4910000   20.7840000  
H 21.0670000   22.2070000   19.2560000  
H 19.0190000   20.1710000   20.2510000  
H 19.5310000   25.2720000   19.6840000  
