76
100 
C 12.4080000   11.2230000   20.9820000  
C 12.8930000   10.2460000   22.0630000  
C 13.7930000   10.7360000   22.9820000  
C 14.5070000   11.9660000   22.7750000  
C 14.0550000   12.9420000   21.9440000  
C 12.9530000   12.6820000   21.0270000  
C 14.3890000   10.1200000   24.1230000  
C 15.3370000   11.0060000   24.6960000  
N 15.3380000   12.0820000   23.8540000  
O 15.7020000    9.7570000   26.7380000  
C 16.0690000   10.8820000   26.0360000  
O 16.8520000   11.6710000   26.4520000  
O 12.4250000   13.5870000   20.3030000  
O 11.6100000   10.7860000   20.0980000  
H 12.5050000    9.3080000   22.1850000  
H 14.1660000    9.1080000   24.5450000  
H 15.0700000    9.2280000   26.2010000  
H 15.7260000   12.9240000   24.1920000  
C 14.6130000   14.2630000   22.0840000  
C 15.7770000   14.5970000   21.3390000  
C 16.2370000   15.8530000   21.3380000  
C 15.6610000   16.8500000   22.1450000  
C 14.5050000   16.5620000   22.9310000  
C 13.9690000   15.2710000   22.8430000  
C 16.7480000   13.8240000   20.5850000  
C 17.7430000   14.6580000   20.2000000  
N 17.4560000   15.9570000   20.6470000  
O 18.8220000   13.0140000   18.8520000  
C 18.9410000   14.2290000   19.4450000  
O 19.9510000   14.9720000   19.3470000  
O 13.9410000   17.5580000   23.7060000  
O 12.7540000   14.9750000   23.4330000  
H 16.6580000   12.7390000   20.4310000  
H 17.8910000   12.7990000   19.0270000  
H 17.8940000   16.7800000   20.3370000  
H 14.0740000   18.4980000   23.2610000  
H 12.4680000   15.8400000   23.7950000  
C 16.3090000   18.2130000   22.1690000  
C 16.2210000   19.0180000   20.9720000  
C 16.5920000   20.3000000   20.8940000  
C 17.1650000   20.9480000   22.0440000  
C 17.3130000   20.1710000   23.2910000  
C 16.8670000   18.8220000   23.3140000  
C 15.6460000   18.7370000   19.6710000  
C 15.7900000   19.8290000   18.8740000  
N 16.4680000   20.8300000   19.6300000  
O 14.4340000   19.0130000   17.0290000  
C 15.1250000   20.0250000   17.5510000  
O 15.1640000   21.0930000   16.9750000  
O 17.7110000   20.7650000   24.4490000  
O 16.7810000   18.1750000   24.4810000  
H 15.0420000   17.8140000   19.3910000  
H 14.6690000   18.2240000   17.5760000  
H 16.8040000   21.7670000   19.3680000  
H 17.8720000   21.6460000   24.2710000  
H 16.8910000   18.7320000   25.2750000  
C 17.5410000   22.3790000   21.8320000  
C 16.6210000   23.4780000   21.6130000  
C 17.0950000   24.7500000   21.5340000  
C 18.4180000   25.1560000   21.7580000  
C 19.3060000   24.0630000   21.9830000  
C 18.8540000   22.6960000   22.0510000  
C 15.1980000   23.5200000   21.4040000  
C 14.9160000   24.8080000   21.1700000  
N 16.0950000   25.5890000   21.1360000  
O 12.5870000   24.4750000   20.9910000  
C 13.5490000   25.3740000   20.9190000  
O 13.2690000   26.5060000   20.5820000  
O 20.5620000   24.4380000   22.3410000  
O 19.7220000   21.6950000   22.2920000  
H 14.5160000   22.6540000   21.4150000  
H 12.9840000   23.6580000   21.3720000  
H 16.2200000   26.5650000   20.8930000  
H 21.1550000   23.6210000   22.3270000  
H 19.4030000   20.8820000   21.9440000  
H 18.6710000   26.2050000   21.6740000  
