76
100 
C 11.4370000   11.5510000   22.0260000  
C 12.3000000   10.5080000   22.5980000  
C 13.5580000   10.7880000   23.1010000  
C 14.1290000   12.0660000   23.0680000  
C 13.4730000   13.1620000   22.4950000  
C 12.1430000   12.9780000   21.8940000  
C 14.3770000    9.9590000   24.0150000  
C 15.5030000   10.7580000   24.3210000  
N 15.2490000   11.9870000   23.7890000  
O 16.7440000    9.0990000   25.5300000  
C 16.6870000   10.4210000   25.1640000  
O 17.5640000   11.2300000   25.4620000  
O 11.5690000   13.8730000   21.3650000  
O 10.3040000   11.3260000   21.7370000  
H 11.8560000    9.5610000   22.6440000  
H 14.1700000    8.9470000   24.4280000  
H 15.9330000    8.7470000   25.1270000  
H 16.0030000   12.7990000   23.8760000  
C 14.2350000   14.4260000   22.4390000  
C 15.2840000   14.5480000   21.5460000  
C 15.9210000   15.7700000   21.4680000  
C 15.4450000   16.9780000   22.0810000  
C 14.2480000   16.8410000   22.8820000  
C 13.7290000   15.5780000   23.1410000  
C 15.8710000   13.7330000   20.4920000  
C 16.8830000   14.5220000   19.8450000  
N 16.9340000   15.8030000   20.4860000  
O 17.2870000   12.8510000   18.2470000  
C 17.7040000   14.0960000   18.6840000  
O 18.6240000   14.7070000   18.1760000  
O 13.7540000   17.9540000   23.5510000  
O 12.6820000   15.4210000   23.9790000  
H 15.6380000   12.6880000   20.3430000  
H 16.5630000   12.5810000   18.8110000  
H 17.4510000   16.6820000   20.1220000  
H 14.5600000   18.6190000   23.6420000  
H 12.2940000   16.2510000   24.1830000  
C 16.1370000   18.3030000   21.9790000  
C 16.1330000   19.0350000   20.7430000  
C 16.7740000   20.2270000   20.6510000  
C 17.4460000   20.8720000   21.7480000  
C 17.4150000   20.1830000   22.9690000  
C 16.8280000   18.8830000   23.1140000  
C 15.5350000   18.8090000   19.4920000  
C 15.8200000   19.9450000   18.7030000  
N 16.5250000   20.8500000   19.4250000  
O 14.6730000   19.2490000   16.7490000  
C 15.3870000   20.2040000   17.3290000  
O 15.6010000   21.3010000   16.8630000  
O 17.9300000   20.8460000   24.1250000  
O 16.9310000   18.1840000   24.2390000  
H 15.0010000   17.8780000   19.3120000  
H 14.4690000   18.6510000   17.5090000  
H 16.8970000   21.7050000   19.1010000  
H 18.2300000   21.7030000   23.8830000  
H 17.6740000   18.4270000   24.7720000  
C 18.0250000   22.2280000   21.5050000  
C 17.2410000   23.3960000   21.4810000  
C 17.8040000   24.6390000   21.5980000  
C 19.1960000   24.7760000   21.5920000  
C 19.9680000   23.6340000   21.3490000  
C 19.4130000   22.3400000   21.2220000  
C 15.8670000   23.5690000   21.7680000  
C 15.6850000   24.9400000   22.0990000  
N 16.8800000   25.6620000   21.9340000  
O 13.3670000   24.7250000   22.8050000  
C 14.3610000   25.5830000   22.4300000  
O 14.0970000   26.7690000   22.5690000  
O 21.3120000   23.7750000   21.1290000  
O 20.3260000   21.3130000   21.0350000  
H 15.1030000   22.8610000   21.7770000  
H 13.6100000   23.9090000   22.3220000  
H 16.9550000   26.6490000   22.0900000  
H 21.5700000   22.8550000   21.1340000  
H 20.1370000   21.0110000   20.1610000  
H 19.6340000   25.7950000   21.8190000  
