76
100 
C 12.4800000   12.8350000   26.6050000  
C 12.0070000   11.7590000   25.7870000  
C 12.1720000   11.7620000   24.4460000  
C 12.6420000   12.9180000   23.8190000  
C 13.2440000   14.0090000   24.4140000  
C 13.2710000   14.0110000   25.9270000  
C 11.7240000   10.8240000   23.4610000  
C 12.0260000   11.3380000   22.1740000  
N 12.6350000   12.6200000   22.4650000  
O 11.1630000    9.6730000   20.8800000  
C 11.6940000   10.8990000   20.8210000  
O 11.8310000   11.4540000   19.7050000  
O 13.7620000   14.9250000   26.5990000  
O 12.2190000   12.9000000   27.7660000  
H 11.3790000   11.0210000   26.2740000  
H 11.3390000    9.8350000   23.8440000  
H 11.1220000    9.5750000   21.8440000  
H 13.1720000   13.2280000   21.8480000  
C 14.0550000   14.9580000   23.6540000  
C 13.6660000   16.2950000   23.5360000  
C 14.3680000   17.1960000   22.7530000  
C 15.6580000   17.0030000   22.2200000  
C 16.1510000   15.7210000   22.5300000  
C 15.3300000   14.6600000   23.1100000  
C 12.3770000   16.8480000   23.7700000  
C 12.3440000   18.1170000   23.1410000  
N 13.5810000   18.3800000   22.5600000  
O 10.1500000   18.5730000   23.7350000  
C 11.1550000   19.0040000   23.0230000  
O 11.1300000   20.0140000   22.3900000  
O 17.3530000   15.2810000   22.0300000  
O 15.8130000   13.3610000   23.1020000  
H 11.5740000   16.3300000   24.3480000  
H 10.5630000   17.8100000   24.1520000  
H 13.7350000   18.9860000   21.7970000  
H 17.9170000   16.0260000   21.7090000  
H 16.7530000   13.2900000   22.9300000  
C 16.3750000   18.0540000   21.3290000  
C 16.8280000   19.3160000   21.8300000  
C 17.4120000   20.1780000   20.9780000  
C 17.5670000   19.9080000   19.5870000  
C 17.1520000   18.6590000   19.0880000  
C 16.5280000   17.7220000   19.9450000  
C 16.7000000   19.9440000   23.1360000  
C 17.1250000   21.2440000   22.9000000  
N 17.5520000   21.3930000   21.5730000  
O 16.4810000   22.2730000   25.0740000  
C 17.0180000   22.4210000   23.8220000  
O 17.3570000   23.5370000   23.4780000  
O 17.2590000   18.3470000   17.7300000  
O 16.0600000   16.5490000   19.4320000  
H 16.1990000   19.4950000   24.0140000  
H 16.0920000   21.3650000   25.0430000  
H 17.8330000   22.2500000   21.1150000  
H 17.6930000   19.1650000   17.4200000  
H 16.0940000   16.5880000   18.4530000  
C 18.2760000   20.9530000   18.7840000  
C 19.7040000   21.0420000   18.9620000  
C 20.4480000   21.8220000   18.1630000  
C 19.8620000   22.6740000   17.1600000  
C 18.4550000   22.6570000   17.0300000  
C 17.6680000   21.7660000   17.8190000  
C 20.6700000   20.3640000   19.8380000  
C 21.9160000   20.8820000   19.5220000  
N 21.7760000   21.6880000   18.3830000  
O 23.0480000   19.9710000   21.4690000  
C 23.1720000   20.6010000   20.2760000  
O 24.2540000   21.0300000   19.9680000  
O 17.9080000   23.4230000   16.0910000  
O 16.2840000   21.6870000   17.6560000  
H 20.4830000   19.6710000   20.6720000  
H 22.1420000   19.7610000   21.3310000  
H 22.5280000   22.2430000   17.9310000  
H 16.9270000   23.2040000   16.0870000  
H 16.1650000   20.9250000   18.2720000  
H 20.4580000   23.3470000   16.5990000  
