76
100 
C 14.9220000   19.9220000   28.9940000  
C 15.1080000   18.6000000   29.6750000  
C 15.3180000   17.4470000   28.9530000  
C 15.4620000   17.4960000   27.5700000  
C 15.4090000   18.5910000   26.8010000  
C 15.1730000   19.9400000   27.4510000  
C 15.4600000   16.0380000   29.3060000  
C 15.7220000   15.3170000   28.1650000  
N 15.6480000   16.2090000   27.0450000  
O 16.1720000   13.2340000   29.2230000  
C 16.1740000   13.8980000   28.0300000  
O 16.3790000   13.3230000   26.9820000  
O 15.0770000   20.8900000   26.7400000  
O 14.5930000   20.9270000   29.6140000  
H 15.0390000   18.5430000   30.7740000  
H 15.6940000   15.6580000   30.2960000  
H 15.5360000   13.6400000   29.8390000  
H 15.6750000   15.8840000   26.0350000  
C 15.5280000   18.3800000   25.4180000  
C 14.4070000   18.6700000   24.6270000  
C 14.4820000   18.5920000   23.2890000  
C 15.6300000   18.1780000   22.5150000  
C 16.7630000   17.8760000   23.3570000  
C 16.7380000   17.9450000   24.7690000  
C 13.1530000   19.2880000   25.0490000  
C 12.5030000   19.5480000   23.8710000  
N 13.3530000   19.0840000   22.7100000  
O 10.5190000   20.3160000   24.8960000  
C 11.0800000   20.1050000   23.7450000  
O 10.5190000   20.1810000   22.7060000  
O 17.7820000   17.1560000   22.7970000  
O 17.7860000   17.5260000   25.5470000  
H 12.7500000   19.4800000   26.0100000  
H 11.1000000   19.8850000   25.5750000  
H 13.2180000   19.1910000   21.7810000  
H 17.5460000   16.9980000   21.8600000  
H 18.2840000   16.8470000   24.9890000  
C 15.6170000   17.9860000   21.0210000  
C 16.4210000   18.6810000   20.0350000  
C 16.3280000   18.3440000   18.7200000  
C 15.5880000   17.3590000   18.1300000  
C 14.8040000   16.6450000   19.1290000  
C 14.8330000   16.9540000   20.5120000  
C 17.4010000   19.6760000   20.1500000  
C 17.9070000   19.9220000   18.8290000  
N 17.2380000   19.0500000   17.9730000  
O 19.2370000   21.6420000   19.4730000  
C 18.9060000   20.9050000   18.4400000  
O 19.2730000   21.0260000   17.3040000  
O 13.9190000   15.7080000   18.7370000  
O 14.1570000   16.0470000   21.3120000  
H 17.6820000   20.1210000   21.1000000  
H 18.9060000   21.1480000   20.2460000  
H 17.4460000   19.0020000   17.0040000  
H 13.9120000   15.6110000   17.7550000  
H 13.5660000   15.5240000   20.7790000  
C 15.6620000   16.9820000   16.6930000  
C 16.8630000   16.3730000   16.2300000  
C 16.8940000   15.9550000   14.9360000  
C 15.9400000   16.2690000   13.9580000  
C 14.7530000   16.9900000   14.3850000  
C 14.6040000   17.2930000   15.7890000  
C 18.1070000   15.9500000   16.9000000  
C 18.7550000   15.1740000   15.9350000  
N 18.0910000   15.3200000   14.7340000  
O 20.6700000   14.7540000   17.2910000  
C 20.0570000   14.4500000   16.0990000  
O 20.6520000   13.7990000   15.2860000  
O 13.7390000   17.2830000   13.5260000  
O 13.5120000   18.0130000   16.1700000  
H 18.4770000   16.2220000   17.8450000  
H 20.0060000   15.1620000   17.7990000  
H 18.3540000   15.0110000   13.8290000  
H 13.0430000   17.7060000   14.0900000  
H 13.6060000   18.5380000   16.9990000  
H 15.9460000   16.0780000   12.8810000  
