76
100 
C 18.1470000   14.3370000   28.2290000  
C 19.6460000   14.4510000   28.1050000  
C 20.1830000   15.3060000   27.2020000  
C 19.4630000   16.0750000   26.3560000  
C 18.1390000   15.8520000   26.0990000  
C 17.3370000   14.9850000   27.0430000  
C 21.5400000   15.5830000   26.9720000  
C 21.6340000   16.6440000   26.0610000  
N 20.3530000   16.7950000   25.5390000  
O 23.9070000   17.0600000   26.1360000  
C 22.7850000   17.5040000   25.6840000  
O 22.6550000   18.4990000   24.9790000  
O 16.0930000   14.8370000   26.9760000  
O 17.5490000   13.7220000   29.1000000  
H 20.1760000   13.8980000   28.8390000  
H 22.4540000   15.1460000   27.4610000  
H 23.6790000   16.5310000   26.8710000  
H 20.0670000   17.3460000   24.7020000  
C 17.6180000   16.5560000   24.9280000  
C 17.0370000   15.7820000   23.9140000  
C 16.4410000   16.3490000   22.8270000  
C 16.1980000   17.7110000   22.7550000  
C 16.6710000   18.5040000   23.8170000  
C 17.3960000   17.9670000   24.9140000  
C 16.9190000   14.4000000   23.6770000  
C 16.1630000   14.1310000   22.5490000  
N 15.8640000   15.3840000   21.9540000  
O 16.1320000   11.7630000   22.7630000  
C 15.7330000   12.8260000   22.0400000  
O 15.2160000   12.7150000   20.9710000  
O 16.4210000   19.8420000   23.8100000  
O 17.6660000   18.8580000   25.9480000  
H 17.2390000   13.6480000   24.3320000  
H 16.4050000   12.1190000   23.5890000  
H 15.1430000   15.5710000   21.2490000  
H 15.9380000   20.0460000   22.9630000  
H 17.2740000   19.7140000   25.7900000  
C 15.5830000   18.2590000   21.5290000  
C 14.3350000   17.8520000   20.9800000  
C 13.9400000   18.3220000   19.7530000  
C 14.6740000   19.0860000   18.8250000  
C 15.9190000   19.4910000   19.3840000  
C 16.3980000   19.1040000   20.6490000  
C 13.2050000   17.0150000   21.5140000  
C 12.1820000   17.3110000   20.6360000  
N 12.6540000   18.0240000   19.5500000  
O 10.5940000   16.1580000   21.9550000  
C 10.8480000   16.7830000   20.7470000  
O  9.9770000   16.9320000   19.9160000  
O 16.6350000   20.3260000   18.5630000  
O 17.6630000   19.3890000   21.0710000  
H 13.1520000   16.5040000   22.4840000  
H 11.3970000   15.9570000   22.3380000  
H 12.1320000   18.2760000   18.7130000  
H 16.4660000   20.0480000   17.6140000  
H 18.1030000   19.7750000   20.2970000  
C 14.2920000   19.3890000   17.3920000  
C 13.2060000   20.3040000   17.0490000  
C 12.9700000   20.7140000   15.7620000  
C 13.7970000   20.2740000   14.7180000  
C 14.7720000   19.3210000   14.9410000  
C 15.0530000   18.9550000   16.2920000  
C 12.1910000   20.8740000   17.8740000  
C 11.4280000   21.7080000   17.0700000  
N 11.8390000   21.5810000   15.7440000  
O 10.6600000   22.9500000   18.9250000  
C 10.4970000   22.7110000   17.6430000  
O  9.6200000   23.2930000   17.0000000  
O 15.6090000   18.8750000   13.8980000  
O 16.0870000   18.1250000   16.5910000  
H 12.1450000   20.8120000   18.9790000  
H 11.3460000   22.3530000   19.1710000  
H 11.4110000   21.8980000   14.8520000  
H 15.9990000   18.0040000   14.1570000  
H 15.9300000   17.6790000   17.4140000  
H 13.6100000   20.5200000   13.7290000  
