76
100 
C 11.5620000   13.1200000   26.3790000  
C 10.7330000   12.5230000   25.3000000  
C 11.1480000   12.7380000   23.9590000  
C 12.2320000   13.5820000   23.7110000  
C 12.9860000   14.2260000   24.5540000  
C 12.8130000   13.9600000   26.0030000  
C 10.7170000   12.0620000   22.7400000  
C 11.5090000   12.5970000   21.7440000  
N 12.3960000   13.4950000   22.4000000  
O 10.4940000   11.1920000   20.0750000  
C 11.5590000   12.0480000   20.3740000  
O 12.4440000   12.3190000   19.5850000  
O 13.4810000   14.5750000   26.8400000  
O 11.3140000   12.8790000   27.4930000  
H  9.8710000   11.9710000   25.5500000  
H 10.0500000   11.2500000   22.7030000  
H  9.9110000   11.3510000   20.8270000  
H 13.0900000   13.9860000   21.8750000  
C 13.9280000   15.1970000   23.9680000  
C 13.5480000   16.5200000   23.8950000  
C 14.4120000   17.3900000   23.2760000  
C 15.5950000   17.0550000   22.6160000  
C 15.9500000   15.6320000   22.7290000  
C 15.0970000   14.7680000   23.3680000  
C 12.3570000   17.2680000   24.2900000  
C 12.5970000   18.5330000   23.8530000  
N 13.8500000   18.6080000   23.1700000  
O 10.7580000   19.3950000   25.0690000  
C 11.7450000   19.7420000   24.2290000  
O 11.9110000   20.8800000   23.8000000  
O 17.1640000   15.2160000   22.2270000  
O 15.5200000   13.4870000   23.4900000  
H 11.5060000   16.9390000   24.8010000  
H 10.7390000   18.4470000   24.9690000  
H 14.3040000   19.4940000   22.9320000  
H 17.6150000   16.0330000   21.9610000  
H 16.4710000   13.4730000   23.3580000  
C 16.4190000   17.9520000   21.7450000  
C 17.3380000   18.9040000   22.2810000  
C 17.9710000   19.7190000   21.3480000  
C 17.7060000   19.7650000   19.9590000  
C 16.7870000   18.8380000   19.4160000  
C 16.1650000   17.9640000   20.3100000  
C 17.9080000   19.2590000   23.5840000  
C 18.7140000   20.4110000   23.4250000  
N 18.6930000   20.7130000   22.0000000  
O 19.5710000   20.6130000   25.5920000  
C 19.5110000   21.1540000   24.4050000  
O 20.0580000   22.1940000   24.1310000  
O 16.3710000   18.8970000   18.1770000  
O 15.0870000   17.1810000   19.8800000  
H 17.6570000   18.7960000   24.5390000  
H 19.0550000   19.8130000   25.4630000  
H 19.0570000   21.5840000   21.6770000  
H 17.1010000   19.3510000   17.6390000  
H 14.9030000   17.3800000   18.9700000  
C 18.2720000   20.8000000   19.0640000  
C 19.3950000   20.5210000   18.2360000  
C 20.0070000   21.5080000   17.5280000  
C 19.5920000   22.8500000   17.5000000  
C 18.5200000   23.1910000   18.3730000  
C 17.9500000   22.1670000   19.2070000  
C 20.0260000   19.2940000   17.9420000  
C 21.0900000   19.6190000   17.1150000  
N 21.0260000   20.9650000   16.8190000  
O 21.8300000   17.4180000   17.0660000  
C 22.1170000   18.6530000   16.5880000  
O 23.0100000   18.8550000   15.8400000  
O 18.1710000   24.5000000   18.4220000  
O 17.1070000   22.5890000   20.1900000  
H 19.8690000   18.2920000   18.3770000  
H 20.9720000   17.5860000   17.5310000  
H 21.5540000   21.4460000   16.0910000  
H 17.3630000   24.4950000   18.9300000  
H 16.6730000   21.8530000   20.5410000  
H 20.1880000   23.6320000   16.9810000  
