76
100 
C 21.3600000   14.3810000   26.1200000  
C 20.7450000   13.0690000   26.3360000  
C 19.5190000   12.8440000   25.9110000  
C 18.8010000   13.7400000   25.1060000  
C 19.2520000   15.0320000   24.9030000  
C 20.5630000   15.4780000   25.4480000  
C 18.6270000   11.7340000   26.0740000  
C 17.5490000   11.8830000   25.2390000  
N 17.6360000   13.1870000   24.7320000  
O 16.3770000    9.9220000   25.7750000  
C 16.3620000   11.0950000   25.0750000  
O 15.3950000   11.5410000   24.4160000  
O 20.9030000   16.6440000   25.3930000  
O 22.3990000   14.6010000   26.6420000  
H 21.3520000   12.4380000   26.9060000  
H 18.7600000   10.8910000   26.7460000  
H 17.2240000    9.7520000   26.2460000  
H 16.9100000   13.6280000   24.2280000  
C 18.5310000   15.8570000   23.9200000  
C 17.7750000   16.9910000   24.2710000  
C 16.9750000   17.6390000   23.3410000  
C 16.9940000   17.3390000   21.9580000  
C 17.7940000   16.2390000   21.5700000  
C 18.5040000   15.4790000   22.5340000  
C 17.4330000   17.5870000   25.5480000  
C 16.5530000   18.6370000   25.2710000  
N 16.1990000   18.6200000   23.9240000  
O 16.4350000   19.4270000   27.5860000  
C 15.9190000   19.4990000   26.3310000  
O 15.0980000   20.3640000   26.0190000  
O 17.8760000   15.8860000   20.2750000  
O 19.1640000   14.3800000   22.0770000  
H 17.8860000   17.3300000   26.5020000  
H 16.9830000   18.6490000   27.6630000  
H 15.4460000   19.1540000   23.3910000  
H 17.3860000   16.5330000   19.7730000  
H 19.0530000   14.4930000   21.1510000  
C 16.0510000   18.0280000   20.9720000  
C 16.2290000   19.3540000   20.5400000  
C 15.2390000   19.9840000   19.8090000  
C 14.0160000   19.4600000   19.4370000  
C 13.8070000   18.1520000   19.9540000  
C 14.8590000   17.4660000   20.5980000  
C 17.3330000   20.3400000   20.7150000  
C 16.9220000   21.5290000   20.0590000  
N 15.6050000   21.2830000   19.4820000  
O 18.9550000   22.8140000   20.4080000  
C 17.7190000   22.7490000   19.8460000  
O 17.2580000   23.6260000   19.1930000  
O 12.6530000   17.5040000   19.6960000  
O 14.5520000   16.2380000   21.1130000  
H 18.3480000   20.1090000   21.1130000  
H 18.8190000   22.0080000   21.0360000  
H 15.1870000   21.9030000   18.8440000  
H 12.2490000   18.0430000   18.9920000  
H 15.2390000   16.0900000   21.7370000  
C 12.7680000   20.2360000   18.9100000  
C 12.1550000   19.9180000   17.6650000  
C 10.9740000   20.4540000   17.2960000  
C 10.3720000   21.5200000   18.0000000  
C 11.0030000   21.9880000   19.1510000  
C 12.2090000   21.3530000   19.6100000  
C 12.4940000   18.8900000   16.6940000  
C 11.4150000   18.7880000   15.8430000  
N 10.4540000   19.7500000   16.1540000  
O 11.9410000   16.7200000   14.9020000  
C 11.1080000   17.7250000   14.7960000  
O 10.2200000   17.7940000   13.9940000  
O 10.7050000   23.2600000   19.5820000  
O 12.8320000   21.7860000   20.7410000  
H 13.3440000   18.2510000   16.6400000  
H 12.7450000   17.1040000   15.3340000  
H  9.5670000   19.8400000   15.7190000  
H  9.8220000   23.4680000   19.3000000  
H 12.2940000   22.5790000   21.1010000  
H  9.4220000   21.9590000   17.6670000  
