76
100 
C 18.8160000   10.5470000   23.6620000  
C 18.2010000    9.9460000   22.4460000  
C 17.7320000   10.7890000   21.4900000  
C 17.5870000   12.1570000   21.6690000  
C 18.0930000   12.8520000   22.7300000  
C 18.8520000   12.1200000   23.8040000  
C 17.2530000   10.5230000   20.1490000  
C 16.9920000   11.7510000   19.5060000  
N 17.1050000   12.7010000   20.4940000  
O 16.2710000   10.9700000   17.3640000  
C 16.4470000   12.0130000   18.1620000  
O 16.2060000   13.1200000   17.7130000  
O 19.3470000   12.7000000   24.7680000  
O 19.1050000    9.8810000   24.6690000  
H 18.2170000    8.8810000   22.4960000  
H 16.9490000    9.5460000   19.7650000  
H 16.6200000   10.2270000   17.8890000  
H 16.9680000   13.6670000   20.3260000  
C 17.6190000   14.2510000   22.6760000  
C 16.2100000   14.5620000   22.7600000  
C 15.6990000   15.7640000   22.4140000  
C 16.5150000   16.7910000   21.9950000  
C 17.8870000   16.5310000   21.8940000  
C 18.4740000   15.2870000   22.2650000  
C 15.0710000   13.7130000   23.0580000  
C 13.9400000   14.5040000   22.9770000  
N 14.3380000   15.8470000   22.6070000  
O 12.5700000   12.7020000   23.8990000  
C 12.5770000   13.9930000   23.3260000  
O 11.5230000   14.5220000   23.0610000  
O 18.7630000   17.4920000   21.5020000  
O 19.8030000   15.0930000   22.2680000  
H 15.1810000   12.6860000   23.3520000  
H 13.4910000   12.3560000   23.9940000  
H 13.7580000   16.6610000   22.5360000  
H 18.2820000   17.8540000   20.7090000  
H 20.2720000   15.8890000   22.1320000  
C 15.9310000   18.1600000   21.5640000  
C 15.6270000   19.1650000   22.4660000  
C 14.9330000   20.3470000   22.0890000  
C 14.4630000   20.6060000   20.7950000  
C 14.9180000   19.6840000   19.8260000  
C 15.5590000   18.4710000   20.2320000  
C 15.9900000   19.4560000   23.8450000  
C 15.3440000   20.6660000   24.2370000  
N 14.7210000   21.2390000   23.1490000  
O 16.3410000   20.8280000   26.4930000  
C 15.5030000   21.3780000   25.5810000  
O 14.8400000   22.3630000   25.9260000  
O 14.7470000   19.9540000   18.4820000  
O 15.9550000   17.6550000   19.1370000  
H 16.4370000   18.7460000   24.5250000  
H 16.5170000   19.9540000   26.1180000  
H 14.3990000   22.2130000   23.0930000  
H 14.1700000   20.7570000   18.3690000  
H 15.9170000   18.2370000   18.2940000  
C 13.8850000   21.9320000   20.4380000  
C 14.6970000   23.1160000   20.5710000  
C 14.1780000   24.3140000   20.2770000  
C 12.8950000   24.4390000   19.7180000  
C 12.0810000   23.3420000   19.5560000  
C 12.6050000   22.0830000   19.8310000  
C 16.0500000   23.4000000   21.1160000  
C 16.2010000   24.7420000   21.2130000  
N 15.0260000   25.3370000   20.7040000  
O 18.3740000   24.5470000   22.1990000  
C 17.4710000   25.3930000   21.6570000  
O 17.6340000   26.5600000   21.5520000  
O 10.8340000   23.4890000   19.2050000  
O 11.8530000   20.9320000   19.6470000  
H 16.8110000   22.6650000   21.5170000  
H 17.9760000   23.6920000   22.0550000  
H 14.7510000   26.2940000   20.8540000  
H 10.7980000   24.3740000   18.7190000  
H 10.9140000   21.2400000   19.5030000  
H 12.5730000   25.4700000   19.6580000  
