76
100 
C 17.8240000   10.0870000   22.5640000  
C 18.4070000   10.2470000   23.9460000  
C 18.3460000   11.3850000   24.6600000  
C 17.8290000   12.5240000   24.0510000  
C 17.2830000   12.6090000   22.7510000  
C 17.2140000   11.3870000   21.9360000  
C 18.8590000   11.7360000   25.9280000  
C 18.7350000   13.1250000   26.0940000  
N 18.1190000   13.5410000   24.8850000  
O 19.5750000   13.0940000   28.2150000  
C 19.0450000   13.8760000   27.2970000  
O 18.8200000   15.1290000   27.5130000  
O 16.6630000   11.3450000   20.8300000  
O 17.9850000    9.0310000   21.9950000  
H 19.0340000    9.4460000   24.3430000  
H 19.2320000   10.9970000   26.5810000  
H 19.5200000   12.1880000   27.8290000  
H 17.8830000   14.4500000   24.6430000  
C 16.7800000   13.8810000   22.3680000  
C 17.6080000   14.8920000   21.8090000  
C 17.2210000   16.1900000   21.7100000  
C 15.9020000   16.6490000   21.8980000  
C 15.0580000   15.6640000   22.5210000  
C 15.4670000   14.3760000   22.7600000  
C 18.9850000   14.7560000   21.3480000  
C 19.2360000   15.9850000   20.7570000  
N 18.2070000   16.9180000   21.0930000  
O 21.3350000   15.3480000   19.8830000  
C 20.4190000   16.3330000   19.9630000  
O 20.6120000   17.4230000   19.4350000  
O 13.7790000   15.9840000   22.9590000  
O 14.6060000   13.5310000   23.4890000  
H 19.5750000   13.8060000   21.2620000  
H 20.8480000   14.5330000   20.1720000  
H 18.2840000   17.8900000   20.8600000  
H 13.5640000   16.9030000   22.6880000  
H 13.8200000   14.0360000   23.6860000  
C 15.5420000   18.1240000   21.7730000  
C 14.8040000   18.5240000   20.6650000  
C 14.5310000   19.8280000   20.3730000  
C 14.8680000   20.8900000   21.2680000  
C 15.5850000   20.5250000   22.4240000  
C 15.9130000   19.1520000   22.6770000  
C 14.3110000   17.8170000   19.5650000  
C 13.9470000   18.7190000   18.5300000  
N 14.1290000   20.0590000   19.0190000  
O 13.3030000   17.0090000   16.9630000  
C 13.4530000   18.3510000   17.1790000  
O 13.1890000   19.1700000   16.3260000  
O 15.8650000   21.4690000   23.4120000  
O 16.7520000   18.8680000   23.7330000  
H 14.3370000   16.7410000   19.4800000  
H 13.8480000   16.5710000   17.6010000  
H 13.9790000   20.8890000   18.4940000  
H 15.8830000   22.2980000   22.8390000  
H 16.6430000   17.9430000   24.0000000  
C 14.5530000   22.3620000   20.9380000  
C 13.2560000   22.8920000   20.6140000  
C 13.0650000   24.1880000   20.2370000  
C 14.0710000   25.1030000   20.0930000  
C 15.3380000   24.6810000   20.4440000  
C 15.5310000   23.3670000   20.9270000  
C 11.8920000   22.3620000   20.6230000  
C 10.9920000   23.3640000   20.4420000  
N 11.7490000   24.5130000   20.1290000  
O  9.0970000   22.0980000   20.8500000  
C  9.5630000   23.3220000   20.4790000  
O  8.8690000   24.3190000   20.3090000  
O 16.3380000   25.5960000   20.3400000  
O 16.8030000   22.9830000   21.2540000  
H 11.6440000   21.2890000   20.9970000  
H  9.8410000   21.6440000   21.2830000  
H 11.3290000   25.4190000   19.9600000  
H 15.9120000   26.4120000   19.9720000  
H 17.1790000   23.7950000   21.5290000  
H 13.9880000   26.1690000   19.8290000  
