76
100 
C 16.0550000   16.8930000   29.5390000  
C 17.5090000   17.1280000   29.5380000  
C 18.2290000   17.4790000   28.3740000  
C 17.5830000   17.6420000   27.1490000  
C 16.2320000   17.6360000   26.9760000  
C 15.3410000   17.1880000   28.1010000  
C 19.6830000   17.6290000   28.1830000  
C 19.8350000   17.9560000   26.8100000  
N 18.5270000   18.0030000   26.2550000  
O 22.1810000   18.0250000   27.0260000  
C 21.1310000   18.2140000   26.1720000  
O 21.2930000   18.4600000   24.9940000  
O 14.1340000   16.9970000   28.0310000  
O 15.4080000   16.6060000   30.4980000  
H 18.0820000   17.0370000   30.5190000  
H 20.4610000   17.6550000   28.8800000  
H 21.7560000   17.8850000   27.8550000  
H 18.3700000   18.2910000   25.3080000  
C 15.7580000   17.7630000   25.5880000  
C 15.6130000   16.5800000   24.7760000  
C 15.4140000   16.6400000   23.4730000  
C 15.1790000   17.8380000   22.8180000  
C 15.3090000   18.9980000   23.5590000  
C 15.6390000   18.9480000   24.9250000  
C 15.8450000   15.2080000   25.1140000  
C 15.8180000   14.4630000   23.9790000  
N 15.4960000   15.3630000   22.9390000  
O 16.3570000   12.3140000   24.9240000  
C 15.9500000   12.9980000   23.8010000  
O 15.8210000   12.3940000   22.7410000  
O 15.2760000   20.2150000   22.9050000  
O 15.8360000   20.0750000   25.5910000  
H 16.1710000   14.9090000   26.0410000  
H 16.2010000   12.9310000   25.6650000  
H 15.3100000   15.1460000   21.9780000  
H 15.2320000   20.0630000   21.9160000  
H 15.5930000   20.7830000   25.0200000  
C 15.2200000   17.9110000   21.3080000  
C 14.1070000   18.3310000   20.5720000  
C 14.1350000   18.2590000   19.1820000  
C 15.1580000   17.6620000   18.4540000  
C 16.2750000   17.1830000   19.2240000  
C 16.2780000   17.2870000   20.6370000  
C 12.7650000   18.8280000   20.9080000  
C 12.1410000   19.1340000   19.7050000  
N 12.9410000   18.5570000   18.6270000  
O 10.0810000   19.8290000   20.7180000  
C 10.7910000   19.7060000   19.5450000  
O 10.3980000   20.1250000   18.4730000  
O 17.3510000   16.5200000   18.5380000  
O 17.4090000   16.9030000   21.2500000  
H 12.3580000   19.0490000   21.8790000  
H 10.6680000   19.3120000   21.3070000  
H 12.8580000   18.4850000   17.6410000  
H 17.2150000   16.6430000   17.6090000  
H 17.2560000   16.8650000   22.2290000  
C 15.0360000   17.3810000   16.9940000  
C 15.5680000   18.2930000   16.0910000  
C 15.3060000   18.1880000   14.7550000  
C 14.5380000   17.1740000   14.2020000  
C 13.9550000   16.2230000   15.1240000  
C 14.2060000   16.3230000   16.5070000  
C 16.4690000   19.3830000   16.3370000  
C 16.8120000   19.8830000   15.0630000  
N 15.9850000   19.2490000   14.1160000  
O 18.4070000   21.3280000   15.9930000  
C 17.7700000   21.0370000   14.8620000  
O 17.9770000   21.6190000   13.8230000  
O 13.2060000   15.1440000   14.7010000  
O 13.6830000   15.3860000   17.3800000  
H 16.7900000   19.6700000   17.3010000  
H 18.2070000   20.5250000   16.4880000  
H 15.8830000   19.5040000   13.1650000  
H 13.0340000   15.1510000   13.7770000  
H 13.9000000   14.4780000   17.0340000  
H 14.3400000   17.1220000   13.1250000  
