76
100 
C 20.0910000   11.8870000   25.1770000  
C 20.8090000   12.9110000   25.9930000  
C 20.4480000   14.2120000   25.9270000  
C 19.3060000   14.6290000   25.2020000  
C 18.5580000   13.8650000   24.3840000  
C 18.9050000   12.4520000   24.3090000  
C 20.9700000   15.4230000   26.4740000  
C 20.1670000   16.4950000   26.1040000  
N 19.1880000   15.9410000   25.2970000  
O 21.3210000   18.2480000   27.3170000  
C 20.4650000   17.9470000   26.3000000  
O 20.0130000   18.7580000   25.5020000  
O 18.2840000   11.6510000   23.6160000  
O 20.4100000   10.7280000   25.0620000  
H 21.7060000   12.6000000   26.5300000  
H 21.8830000   15.4290000   27.0760000  
H 21.5440000   17.3730000   27.7120000  
H 18.4930000   16.4580000   24.8320000  
C 17.5170000   14.5560000   23.6160000  
C 17.7640000   14.9150000   22.2720000  
C 16.9840000   15.9090000   21.7210000  
C 15.9160000   16.6450000   22.3220000  
C 15.5350000   16.1160000   23.5870000  
C 16.3830000   15.1460000   24.2080000  
C 18.9390000   14.7410000   21.4790000  
C 18.8410000   15.6510000   20.4600000  
N 17.6180000   16.3480000   20.5660000  
O 20.8830000   15.0060000   19.5010000  
C 19.7960000   15.7770000   19.3590000  
O 19.6590000   16.4180000   18.3850000  
O 14.5440000   16.7330000   24.2430000  
O 16.0740000   14.8110000   25.4820000  
H 19.8220000   14.0400000   21.6360000  
H 20.5620000   14.2500000   20.0670000  
H 17.3920000   17.0740000   19.8940000  
H 14.2410000   17.5420000   23.6980000  
H 15.2160000   15.1980000   25.7300000  
C 15.2180000   17.6600000   21.4860000  
C 14.5330000   17.4100000   20.2980000  
C 14.0020000   18.4260000   19.5550000  
C 13.9050000   19.7960000   19.9400000  
C 14.6160000   20.0960000   21.1000000  
C 15.2610000   19.0610000   21.8490000  
C 14.0770000   16.1450000   19.7220000  
C 13.1650000   16.5310000   18.7020000  
N 13.1760000   17.9090000   18.5290000  
O 12.4860000   14.3320000   18.3580000  
C 12.3660000   15.6130000   17.8730000  
O 11.7310000   15.9280000   16.8780000  
O 14.7080000   21.3720000   21.5300000  
O 16.0310000   19.4600000   22.9110000  
H 14.1420000   15.0890000   20.0240000  
H 13.1720000   14.4150000   19.0690000  
H 12.6700000   18.3890000   17.8310000  
H 14.0680000   21.8520000   20.9880000  
H 16.0110000   20.4150000   22.9570000  
C 13.2100000   20.9300000   19.1780000  
C 12.3110000   21.8040000   19.7990000  
C 11.6490000   22.7680000   19.0870000  
C 11.8210000   22.9350000   17.7340000  
C 12.8080000   22.1660000   17.1680000  
C 13.4990000   21.2040000   17.8130000  
C 11.8660000   21.7830000   21.1110000  
C 10.9880000   22.7960000   21.2060000  
N 10.8370000   23.4650000   19.9760000  
O 10.9320000   22.9190000   23.5250000  
C 10.2790000   23.2800000   22.3760000  
O  9.2890000   23.9920000   22.3730000  
O 13.0850000   22.3630000   15.8880000  
O 14.4150000   20.4600000   17.0560000  
H 12.0190000   20.9060000   21.8140000  
H 11.7050000   22.5190000   23.0720000  
H 10.2110000   24.2600000   19.7320000  
H 12.4110000   22.9420000   15.5130000  
H 14.4050000   20.7260000   16.1380000  
H 11.2710000   23.6760000   17.1620000  
