76
100 
C 13.9330000   15.7430000   28.7090000  
C 12.8650000   16.6590000   29.1190000  
C 12.4750000   17.7120000   28.2740000  
C 13.0250000   17.9670000   27.0480000  
C 14.0280000   17.1610000   26.5330000  
C 14.5180000   15.9430000   27.2490000  
C 11.4970000   18.6880000   28.4500000  
C 11.3820000   19.4500000   27.2750000  
N 12.4310000   19.0460000   26.4810000  
O  9.6330000   20.7810000   27.9770000  
C 10.5060000   20.5090000   26.9880000  
O 10.4540000   21.0790000   25.9240000  
O 15.3720000   15.1790000   26.9030000  
O 14.3360000   14.9010000   29.4480000  
H 12.4180000   16.4730000   30.0660000  
H 10.8710000   18.6950000   29.3050000  
H  9.9230000   20.4290000   28.8120000  
H 12.6560000   19.5220000   25.5850000  
C 14.4880000   17.4070000   25.1890000  
C 15.8990000   17.7770000   24.9260000  
C 16.2820000   18.1130000   23.6820000  
C 15.5150000   18.0410000   22.5620000  
C 14.1760000   17.5340000   22.7600000  
C 13.6690000   17.2270000   24.0590000  
C 17.1440000   17.8710000   25.7420000  
C 18.2080000   18.1230000   24.8690000  
N 17.6360000   18.3430000   23.6170000  
O 19.8920000   17.6000000   26.4370000  
C 19.6340000   17.8860000   25.1820000  
O 20.4820000   17.7700000   24.3150000  
O 13.3310000   17.3740000   21.7060000  
O 12.3420000   16.7370000   24.2830000  
H 17.2190000   17.6130000   26.8440000  
H 19.0670000   17.8040000   26.9100000  
H 18.1080000   18.6390000   22.7790000  
H 14.0130000   17.2660000   21.0060000  
H 12.0450000   16.6110000   23.3490000  
C 16.0600000   18.2560000   21.1890000  
C 16.7150000   17.1980000   20.4890000  
C 17.2390000   17.4610000   19.2150000  
C 17.1830000   18.7100000   18.5240000  
C 16.4760000   19.7230000   19.2220000  
C 15.8980000   19.5080000   20.5110000  
C 16.9310000   15.8390000   20.7640000  
C 17.5340000   15.2720000   19.5960000  
N 17.7900000   16.3410000   18.6670000  
O 17.6070000   13.0490000   20.5400000  
C 17.9550000   13.8360000   19.5090000  
O 18.3710000   13.3740000   18.4560000  
O 16.2530000   20.9380000   18.6150000  
O 15.0850000   20.4040000   21.1360000  
H 16.6690000   15.3590000   21.6650000  
H 17.2270000   13.5440000   21.3010000  
H 18.3920000   16.3020000   17.8400000  
H 16.7380000   20.8580000   17.7220000  
H 14.8580000   20.0480000   22.0240000  
C 17.7320000   18.8830000   17.1120000  
C 17.2700000   18.0130000   16.0760000  
C 17.7640000   18.0960000   14.7830000  
C 18.9190000   18.8850000   14.5220000  
C 19.4970000   19.6370000   15.6030000  
C 18.8820000   19.6810000   16.8390000  
C 16.2300000   16.9680000   16.1260000  
C 16.1310000   16.4690000   14.8390000  
N 17.0680000   17.1890000   13.9770000  
O 14.6760000   14.7460000   15.2070000  
C 15.2730000   15.4160000   14.2690000  
O 15.2990000   15.1710000   13.0840000  
O 20.6710000   20.3130000   15.3540000  
O 19.1540000   20.6190000   17.7810000  
H 15.6550000   16.7140000   17.0030000  
H 14.8280000   15.3760000   15.9160000  
H 17.2140000   16.9680000   12.9720000  
H 21.0300000   20.1160000   14.5120000  
H 19.9840000   20.9550000   17.4800000  
H 19.4400000   18.8380000   13.6030000  
