76
100 
C 20.5740000   11.7560000   23.4430000  
C 19.8840000   11.3870000   24.6840000  
C 18.7360000   12.0010000   25.0330000  
C 18.2080000   13.0930000   24.2890000  
C 18.6350000   13.3930000   23.0260000  
C 19.8740000   12.8200000   22.5370000  
C 17.9470000   11.9340000   26.2390000  
C 16.8480000   12.7640000   26.0630000  
N 17.1030000   13.5190000   24.8890000  
O 15.6880000   12.0510000   27.9730000  
C 15.6810000   12.8820000   26.9070000  
O 14.7650000   13.6900000   26.6250000  
O 20.3380000   13.1050000   21.4170000  
O 21.6940000   11.3450000   23.1320000  
H 20.4850000   10.7180000   25.3450000  
H 18.1680000   11.2970000   27.1060000  
H 16.3120000   11.3960000   27.6950000  
H 16.5230000   14.2340000   24.4390000  
C 17.8500000   14.3710000   22.2360000  
C 18.5350000   15.5960000   22.0700000  
C 17.8390000   16.7150000   21.7950000  
C 16.4870000   16.7890000   21.5110000  
C 15.8410000   15.5170000   21.5490000  
C 16.5070000   14.3230000   21.9380000  
C 19.7810000   16.0060000   22.6130000  
C 19.8090000   17.3770000   22.7150000  
N 18.6150000   17.8470000   22.1040000  
O 21.9860000   17.3530000   23.7900000  
C 20.9300000   18.1240000   23.3340000  
O 21.0090000   19.3260000   23.4400000  
O 14.5110000   15.2370000   21.2900000  
O 15.8100000   13.2000000   22.1080000  
H 20.5410000   15.3740000   23.0420000  
H 21.7130000   16.4650000   23.6090000  
H 18.2860000   18.7720000   21.9660000  
H 14.0530000   16.0920000   21.1300000  
H 15.0360000   13.3460000   21.5370000  
C 15.7490000   18.0590000   21.3430000  
C 15.2330000   18.4410000   20.1420000  
C 14.5560000   19.6250000   20.0420000  
C 14.3110000   20.5730000   21.0530000  
C 14.7650000   20.1660000   22.3300000  
C 15.5100000   18.9420000   22.4280000  
C 15.3550000   17.8510000   18.8450000  
C 14.7380000   18.7330000   17.9790000  
N 14.2900000   19.8330000   18.6840000  
O 15.2690000   17.5790000   15.9630000  
C 14.8370000   18.7610000   16.5060000  
O 14.5820000   19.6830000   15.7500000  
O 14.4680000   20.9260000   23.4290000  
O 15.9870000   18.6180000   23.6680000  
H 15.8780000   16.9210000   18.6150000  
H 15.5340000   16.9740000   16.6250000  
H 13.8120000   20.6440000   18.2560000  
H 14.0770000   21.7880000   23.2060000  
H 16.5270000   17.8090000   23.5660000  
C 13.5840000   21.8710000   20.8280000  
C 12.3440000   21.9920000   20.1280000  
C 11.7720000   23.1950000   19.9300000  
C 12.3230000   24.4150000   20.3340000  
C 13.5620000   24.4020000   21.0430000  
C 14.1790000   23.1820000   21.3070000  
C 11.4260000   20.9640000   19.5860000  
C 10.3120000   21.6720000   19.1560000  
N 10.5520000   23.0200000   19.3120000  
O  9.3160000   19.6640000   18.3950000  
C  9.3590000   20.9910000   18.2990000  
O  8.6310000   21.6060000   17.6220000  
O 14.2140000   25.5780000   21.3430000  
O 15.3250000   23.2530000   22.0380000  
H 11.6240000   19.9140000   19.4820000  
H 10.1430000   19.4230000   18.8660000  
H 10.1060000   23.7690000   18.8020000  
H 13.8650000   26.2700000   20.8410000  
H 15.4290000   24.2190000   22.3310000  
H 11.8410000   25.3720000   20.1320000  
