76
100 
C 15.2210000   10.3440000   24.7560000  
C 15.7730000    9.7120000   23.5510000  
C 16.2410000   10.4280000   22.4610000  
C 16.1680000   11.8780000   22.5260000  
C 15.6320000   12.6100000   23.5450000  
C 15.0080000   11.9070000   24.7040000  
C 16.8170000   10.1240000   21.2500000  
C 17.1500000   11.3190000   20.5660000  
N 16.7660000   12.3940000   21.3720000  
O 17.9490000   10.3130000   18.5790000  
C 17.8270000   11.4570000   19.2880000  
O 18.3200000   12.4810000   18.8380000  
O 14.3340000   12.4630000   25.5510000  
O 14.8800000    9.6320000   25.7060000  
H 15.7000000    8.6520000   23.6420000  
H 17.0640000    9.0880000   20.9550000  
H 17.3960000    9.7230000   19.0530000  
H 16.8170000   13.3890000   21.2190000  
C 15.5780000   14.0640000   23.3000000  
C 14.8310000   14.6100000   22.2910000  
C 14.8850000   15.8890000   21.9430000  
C 15.7870000   16.8020000   22.5180000  
C 16.3860000   16.3460000   23.7420000  
C 16.3330000   14.9980000   24.0820000  
C 13.8710000   13.8850000   21.3990000  
C 13.3880000   14.9140000   20.6430000  
N 14.0430000   16.1380000   20.9120000  
O 11.9090000   13.4810000   19.3100000  
C 12.4540000   14.7350000   19.4860000  
O 12.1930000   15.6870000   18.8030000  
O 17.1730000   17.1620000   24.3850000  
O 16.9910000   14.5400000   25.1960000  
H 13.6240000   12.8100000   21.3680000  
H 12.3800000   12.9420000   19.8960000  
H 14.0550000   17.0340000   20.4430000  
H 17.2420000   17.9150000   23.7730000  
H 17.3350000   15.3280000   25.6810000  
C 15.8230000   18.2430000   21.9290000  
C 15.6950000   19.3640000   22.7260000  
C 15.7040000   20.5930000   22.1070000  
C 15.8560000   20.8210000   20.7440000  
C 15.9920000   19.6790000   19.9100000  
C 16.1640000   18.4080000   20.5600000  
C 15.4550000   19.6790000   24.1170000  
C 15.4260000   21.0690000   24.2680000  
N 15.4900000   21.6280000   23.0090000  
O 15.0560000   20.9710000   26.5450000  
C 15.2750000   21.7970000   25.4970000  
O 15.3110000   22.9870000   25.6120000  
O 15.9920000   19.7240000   18.5490000  
O 16.2630000   17.3510000   19.7210000  
H 15.2660000   18.9000000   24.8620000  
H 15.1320000   20.1270000   26.1180000  
H 15.2310000   22.5330000   22.7430000  
H 15.8010000   20.6250000   18.2790000  
H 16.5460000   16.5860000   20.2480000  
C 15.6330000   22.1620000   20.1500000  
C 16.6070000   23.1620000   20.1860000  
C 16.4630000   24.3810000   19.6110000  
C 15.2980000   24.8490000   18.9780000  
C 14.2950000   23.9250000   18.9950000  
C 14.3720000   22.6170000   19.5500000  
C 17.9770000   23.1090000   20.6000000  
C 18.5010000   24.3790000   20.6020000  
N 17.5830000   25.1610000   19.9220000  
O 20.3040000   23.8050000   22.0500000  
C 19.7450000   24.7590000   21.3210000  
O 20.2940000   25.8760000   21.2670000  
O 13.1420000   24.3910000   18.4640000  
O 13.3380000   21.6810000   19.3850000  
H 18.3970000   22.2440000   21.0570000  
H 19.8520000   22.9370000   21.8740000  
H 17.6840000   26.1470000   19.7660000  
H 13.3370000   25.1510000   17.8490000  
H 12.6990000   22.0950000   18.7810000  
H 15.2060000   25.8780000   18.5520000  
