76
100 
C 18.7320000   10.7440000   23.3570000  
C 17.9210000    9.8150000   22.4870000  
C 17.1530000   10.3360000   21.4650000  
C 17.0480000   11.7220000   21.2270000  
C 17.7210000   12.6830000   21.9290000  
C 18.5860000   12.3250000   23.0940000  
C 16.2800000    9.7360000   20.5020000  
C 15.7720000   10.7900000   19.6460000  
N 16.2430000   11.9690000   20.1620000  
O 14.5550000    9.4380000   18.0360000  
C 14.9190000   10.6450000   18.4380000  
O 14.6400000   11.6210000   17.7620000  
O 19.1230000   13.1070000   23.8300000  
O 19.4400000   10.3540000   24.2740000  
H 18.0550000    8.7960000   22.6780000  
H 16.2270000    8.6990000   20.2890000  
H 15.1900000    8.8080000   18.4340000  
H 15.9570000   12.9470000   19.9340000  
C 17.2590000   14.0670000   21.6560000  
C 16.1560000   14.6190000   22.3450000  
C 15.7380000   15.9140000   22.1660000  
C 16.3650000   16.8460000   21.2990000  
C 17.5300000   16.3320000   20.6700000  
C 17.9140000   14.9490000   20.8440000  
C 15.1830000   14.1100000   23.3630000  
C 14.3700000   15.1630000   23.7380000  
N 14.7040000   16.2980000   23.0020000  
O 13.1120000   13.8460000   25.3190000  
C 13.3250000   15.0700000   24.7640000  
O 12.6290000   15.9830000   25.0380000  
O 18.3720000   17.2150000   20.0440000  
O 19.1340000   14.6140000   20.3880000  
H 15.2930000   13.2310000   23.9480000  
H 13.8600000   13.3630000   24.9540000  
H 14.2060000   17.1820000   22.9850000  
H 17.8150000   18.0690000   19.9720000  
H 19.4630000   15.2750000   19.7850000  
C 15.8420000   18.2620000   21.1210000  
C 15.7890000   19.1120000   22.1970000  
C 15.2700000   20.4060000   22.0730000  
C 14.7510000   21.0130000   20.9140000  
C 14.9430000   20.1920000   19.7720000  
C 15.4570000   18.8670000   19.8910000  
C 16.2270000   19.0150000   23.5720000  
C 15.8640000   20.1700000   24.2300000  
N 15.2800000   21.0060000   23.2930000  
O 16.4950000   19.1930000   26.3090000  
C 16.0760000   20.3120000   25.7060000  
O 16.1250000   21.4040000   26.2350000  
O 14.5380000   20.6960000   18.5430000  
O 15.5280000   18.1620000   18.7290000  
H 16.8040000   18.2670000   24.0400000  
H 16.3990000   18.4390000   25.6910000  
H 15.0000000   21.9530000   23.4520000  
H 14.2580000   21.6380000   18.6480000  
H 14.7720000   18.6150000   18.2370000  
C 14.1550000   22.3980000   20.8490000  
C 15.0020000   23.4990000   20.8870000  
C 14.5850000   24.7670000   20.8810000  
C 13.2020000   25.0940000   20.8820000  
C 12.2810000   24.0430000   21.0400000  
C 12.7760000   22.6920000   20.9120000  
C 16.4750000   23.4750000   21.0320000  
C 16.8570000   24.7950000   20.8500000  
N 15.6870000   25.6140000   20.8390000  
O 19.1010000   24.3720000   21.0630000  
C 18.2440000   25.3800000   20.9440000  
O 18.4990000   26.5810000   20.9640000  
O 10.9170000   24.2820000   20.9630000  
O 11.8160000   21.6930000   20.8050000  
H 17.0920000   22.5880000   21.3000000  
H 18.5780000   23.5910000   21.0850000  
H 15.7180000   26.6160000   20.9770000  
H 10.7620000   25.2960000   21.0730000  
H 11.0940000   22.2700000   21.0540000  
H 12.9140000   26.1420000   20.9480000  
