76
100 
C 17.9020000   10.6670000   21.6890000  
C 18.6430000   10.4390000   22.8760000  
C 18.7190000   11.3910000   23.8590000  
C 18.2230000   12.6350000   23.7590000  
C 17.4110000   12.9950000   22.7420000  
C 17.3480000   12.1280000   21.5310000  
C 19.2380000   11.2670000   25.2110000  
C 19.0300000   12.5070000   25.9090000  
N 18.4180000   13.3100000   24.9850000  
O 19.7180000   11.8540000   28.0150000  
C 19.1870000   12.8350000   27.3630000  
O 18.7250000   13.9020000   27.8210000  
O 16.6850000   12.4540000   20.5840000  
O 17.5290000    9.8060000   20.9460000  
H 19.0140000    9.4330000   23.1260000  
H 19.6340000   10.3380000   25.5380000  
H 20.0580000   11.2310000   27.3520000  
H 17.9700000   14.2190000   25.2220000  
C 16.8390000   14.3350000   22.7880000  
C 17.6460000   15.4840000   22.8860000  
C 17.1020000   16.7010000   22.8340000  
C 15.8070000   16.9420000   22.3910000  
C 14.9130000   15.7680000   22.3290000  
C 15.4540000   14.5310000   22.6370000  
C 19.0440000   15.6760000   23.0990000  
C 19.2260000   17.0580000   23.0080000  
N 18.0020000   17.7000000   22.8640000  
O 21.5600000   16.9120000   23.0720000  
C 20.4990000   17.7470000   22.9890000  
O 20.5570000   18.9520000   23.0190000  
O 13.6060000   15.8540000   21.8780000  
O 14.6180000   13.5200000   22.6390000  
H 19.7930000   14.8980000   23.3940000  
H 21.2060000   16.0240000   23.0580000  
H 17.8960000   18.7450000   22.8760000  
H 13.2890000   16.7880000   21.6870000  
H 13.7430000   13.8710000   22.5030000  
C 15.4140000   18.3520000   22.0050000  
C 15.2540000   18.6660000   20.6240000  
C 14.8700000   19.9400000   20.2430000  
C 14.7840000   21.0720000   21.1090000  
C 15.0890000   20.7800000   22.4720000  
C 15.4030000   19.4460000   22.9340000  
C 15.3450000   17.9130000   19.4220000  
C 14.9600000   18.7340000   18.3520000  
N 14.6300000   20.0080000   18.8770000  
O 15.6800000   17.3590000   16.5110000  
C 14.9950000   18.4450000   16.9040000  
O 14.4820000   19.1860000   16.1050000  
O 14.9970000   21.8030000   23.3240000  
O 15.5930000   19.2220000   24.2860000  
H 15.6450000   16.8600000   19.2920000  
H 16.0730000   17.1790000   17.3630000  
H 14.2050000   20.8430000   18.4320000  
H 14.9430000   22.6090000   22.7680000  
H 16.1790000   18.4180000   24.3260000  
C 14.2100000   22.3170000   20.5610000  
C 12.8750000   22.3850000   20.0590000  
C 12.3810000   23.5400000   19.5670000  
C 13.2260000   24.6680000   19.3020000  
C 14.5570000   24.6580000   19.7820000  
C 15.0120000   23.5110000   20.3990000  
C 11.7870000   21.3990000   20.1370000  
C 10.6780000   22.0600000   19.6030000  
N 11.0210000   23.4160000   19.2910000  
O  9.2320000   20.1360000   19.9340000  
C  9.3450000   21.3730000   19.3940000  
O  8.4270000   21.8740000   18.6950000  
O 15.3100000   25.7810000   19.6970000  
O 16.2550000   23.5490000   20.9980000  
H 11.8360000   20.3200000   20.2730000  
H 10.0040000   20.0270000   20.5090000  
H 10.4340000   24.2020000   18.9810000  
H 14.8510000   26.4210000   19.0840000  
H 16.6160000   24.4410000   20.8330000  
H 12.8420000   25.5680000   18.8470000  
