76
100 
C 13.4130000   16.3540000   28.7570000  
C 12.0630000   17.0850000   28.8360000  
C 11.4670000   17.3850000   27.6410000  
C 12.0410000   17.0620000   26.4320000  
C 13.2500000   16.5150000   26.1750000  
C 14.1590000   16.3300000   27.3060000  
C 10.2010000   17.9980000   27.3780000  
C 10.0790000   18.0490000   26.0010000  
N 11.2410000   17.4990000   25.4790000  
O  7.8950000   19.1740000   25.7690000  
C  8.9600000   18.6500000   25.1960000  
O  9.0470000   18.6420000   23.9650000  
O 15.3430000   16.1710000   27.2030000  
O 13.9230000   15.9660000   29.7620000  
H 11.6420000   17.3110000   29.8210000  
H  9.4880000   18.2430000   28.1490000  
H  8.0870000   19.0510000   26.6960000  
H 11.4520000   17.6290000   24.5430000  
C 13.7950000   16.6380000   24.8190000  
C 14.4620000   17.8400000   24.4280000  
C 15.0780000   17.8590000   23.2360000  
C 14.9070000   16.9840000   22.2140000  
C 14.2100000   15.7800000   22.5440000  
C 13.7020000   15.6170000   23.8770000  
C 14.9720000   18.9480000   25.2030000  
C 15.8440000   19.6530000   24.3710000  
N 15.8310000   18.9940000   23.1270000  
O 16.5960000   21.2860000   25.9380000  
C 16.5960000   20.9340000   24.6180000  
O 17.2190000   21.5580000   23.7780000  
O 14.0000000   14.7950000   21.5970000  
O 13.0960000   14.4680000   24.3510000  
H 14.6410000   19.2830000   26.1930000  
H 16.4500000   20.4990000   26.4440000  
H 16.4200000   19.3040000   22.3110000  
H 14.2140000   15.2120000   20.7220000  
H 13.1330000   13.7640000   23.7310000  
C 15.5920000   17.2140000   20.8720000  
C 16.9800000   17.3100000   20.7510000  
C 17.5790000   17.5020000   19.5590000  
C 16.8990000   17.7540000   18.3360000  
C 15.4990000   17.7720000   18.4160000  
C 14.8920000   17.4900000   19.6780000  
C 18.0880000   17.2810000   21.7000000  
C 19.2780000   17.5170000   20.9850000  
N 18.9080000   17.5940000   19.6420000  
O 20.6620000   17.5360000   22.8900000  
C 20.6440000   17.5680000   21.5660000  
O 21.6150000   17.6610000   20.8430000  
O 14.7520000   18.1950000   17.3730000  
O 13.5520000   17.7400000   19.8270000  
H 18.0420000   16.9980000   22.7280000  
H 19.6880000   17.4990000   23.1310000  
H 19.5520000   17.8840000   18.9050000  
H 15.2840000   18.1260000   16.5630000  
H 13.3950000   17.4720000   20.7240000  
C 17.6070000   18.3490000   17.2240000  
C 18.5650000   17.5220000   16.5500000  
C 19.4590000   18.0710000   15.6640000  
C 19.4230000   19.3870000   15.2710000  
C 18.5430000   20.2140000   16.0080000  
C 17.5880000   19.7640000   16.9550000  
C 18.8870000   16.1030000   16.7070000  
C 19.9750000   15.8640000   15.7940000  
N 20.3280000   17.1120000   15.2400000  
O 20.0130000   13.5780000   16.0860000  
C 20.7070000   14.5800000   15.5160000  
O 21.6790000   14.4260000   14.8010000  
O 18.5070000   21.5800000   15.8510000  
O 16.6410000   20.5520000   17.4520000  
H 18.3360000   15.4120000   17.4210000  
H 19.2920000   14.0580000   16.4910000  
H 20.9480000   17.2850000   14.4550000  
H 19.3400000   21.9720000   15.3580000  
H 16.4810000   21.2860000   16.7880000  
H 20.1690000   19.8710000   14.5730000  
