76
100 
C 14.3130000   21.6080000   28.0080000  
C 14.8330000   20.6930000   29.1000000  
C 15.4460000   19.4670000   28.7270000  
C 15.6690000   19.1560000   27.3660000  
C 15.1090000   19.8230000   26.2950000  
C 14.2290000   21.0270000   26.5090000  
C 16.2270000   18.4330000   29.4070000  
C 16.9220000   17.5790000   28.5120000  
N 16.4490000   18.0130000   27.2430000  
O 18.1380000   16.3330000   30.2080000  
C 17.9580000   16.5860000   28.8860000  
O 18.5750000   15.9340000   28.0260000  
O 13.5300000   21.4870000   25.6360000  
O 13.8930000   22.7490000   28.1310000  
H 14.7860000   21.1550000   30.1270000  
H 16.4280000   18.4610000   30.4510000  
H 17.3630000   16.5550000   30.7320000  
H 16.7360000   17.6310000   26.3700000  
C 15.3330000   19.2720000   24.9650000  
C 14.7350000   18.0470000   24.5620000  
C 15.1410000   17.4590000   23.3820000  
C 16.0030000   18.1100000   22.4200000  
C 16.5030000   19.3630000   22.7470000  
C 16.1640000   19.9390000   24.0710000  
C 13.8280000   17.1740000   25.2520000  
C 13.5700000   16.2020000   24.2970000  
N 14.3670000   16.3590000   23.1170000  
O 11.9870000   15.0770000   25.6140000  
C 12.6310000   15.0970000   24.4500000  
O 12.5130000   14.2150000   23.6170000  
O 17.2480000   20.0800000   21.8670000  
O 16.7860000   21.0970000   24.4390000  
H 13.4510000   17.3180000   26.2900000  
H 12.4500000   15.7580000   26.1520000  
H 14.3450000   15.8580000   22.2100000  
H 17.9270000   19.4870000   21.5070000  
H 17.3380000   21.5090000   23.7760000  
C 16.0230000   17.5710000   21.0300000  
C 15.3350000   18.2100000   19.9980000  
C 15.3760000   17.6810000   18.7540000  
C 16.1910000   16.5840000   18.4110000  
C 16.9130000   16.0050000   19.5190000  
C 16.8720000   16.4640000   20.8310000  
C 14.3520000   19.2200000   19.9410000  
C 13.8090000   19.2150000   18.6510000  
N 14.4600000   18.2290000   17.9210000  
O 12.0410000   20.9860000   18.9250000  
C 12.6610000   20.0520000   18.1510000  
O 12.2360000   19.7290000   17.0540000  
O 17.5770000   14.8280000   19.3460000  
O 17.6280000   15.8600000   21.8220000  
H 13.9700000   19.7990000   20.7670000  
H 12.5970000   21.1360000   19.6750000  
H 14.1080000   17.8740000   17.0690000  
H 17.3930000   14.5340000   18.4120000  
H 18.4800000   15.6600000   21.4200000  
C 16.1790000   16.0520000   17.0330000  
C 17.3780000   16.1080000   16.3040000  
C 17.5140000   15.6300000   15.1040000  
C 16.5790000   14.8290000   14.5120000  
C 15.3200000   14.7360000   15.1940000  
C 15.0930000   15.3450000   16.4700000  
C 18.5910000   16.7610000   16.6750000  
C 19.5320000   16.5720000   15.6660000  
N 18.8190000   15.7610000   14.7410000  
O 21.4540000   17.4410000   16.7060000  
C 20.9370000   16.9700000   15.5550000  
O 21.6160000   16.8590000   14.5420000  
O 14.2090000   14.1430000   14.6560000  
O 13.8550000   15.2310000   17.0560000  
H 18.6430000   17.3650000   17.6130000  
H 20.8160000   17.0670000   17.3540000  
H 19.2240000   15.2380000   14.0500000  
H 14.5320000   13.9680000   13.7110000  
H 13.3480000   14.7240000   16.4230000  
H 16.7640000   14.2140000   13.5550000  
