76
100 
C 17.7270000   10.4780000   21.2020000  
C 16.6080000    9.7500000   20.5700000  
C 15.3820000   10.3870000   20.4400000  
C 15.1770000   11.7340000   20.7990000  
C 16.1890000   12.5600000   21.2570000  
C 17.5470000   12.0190000   21.5150000  
C 14.0500000   10.0060000   20.0200000  
C 13.1920000   11.0860000   20.1870000  
N 13.9510000   12.1590000   20.5170000  
O 11.0860000    9.9060000   19.7230000  
C 11.7120000   11.1400000   19.8630000  
O 11.1120000   12.1700000   19.7160000  
O 18.4840000   12.6280000   21.9940000  
O 18.7300000    9.8140000   21.4750000  
H 16.7550000    8.6940000   20.3510000  
H 13.8220000    8.9730000   19.6960000  
H 11.8820000    9.3240000   19.7450000  
H 13.6240000   13.0780000   20.4470000  
C 15.8860000   13.9880000   21.3720000  
C 15.2220000   14.6200000   22.4870000  
C 15.2320000   15.9390000   22.6500000  
C 15.8950000   16.8630000   21.8280000  
C 16.4240000   16.2970000   20.6680000  
C 16.3370000   14.9260000   20.3880000  
C 14.4350000   14.0480000   23.5120000  
C 14.0050000   15.1210000   24.2870000  
N 14.6000000   16.2990000   23.7870000  
O 12.6690000   13.8310000   25.7430000  
C 13.0970000   15.0540000   25.4650000  
O 12.7800000   15.9780000   26.1690000  
O 17.0560000   17.1390000   19.7370000  
O 17.1750000   14.4920000   19.3430000  
H 14.1720000   12.9590000   23.6270000  
H 13.1010000   13.2460000   25.1030000  
H 14.3610000   17.2220000   24.0910000  
H 17.0220000   18.0230000   20.0440000  
H 17.2030000   15.1880000   18.5910000  
C 15.8450000   18.3450000   21.9690000  
C 17.0190000   19.0710000   22.0960000  
C 16.9950000   20.4270000   22.2700000  
C 15.8050000   21.1620000   22.3290000  
C 14.6000000   20.4760000   22.2410000  
C 14.6210000   19.0840000   22.0680000  
C 18.3710000   18.6570000   21.9420000  
C 19.1730000   19.8250000   22.1000000  
N 18.3110000   20.9090000   22.3240000  
O 21.3340000   18.7850000   22.0300000  
C 20.6130000   19.9290000   22.0330000  
O 21.1950000   20.9720000   22.0610000  
O 13.3830000   21.1230000   22.2320000  
O 13.4310000   18.4850000   21.7460000  
H 18.7800000   17.6900000   21.9750000  
H 20.6100000   18.1330000   22.1570000  
H 18.6470000   21.7790000   22.7680000  
H 13.5140000   21.8990000   22.8180000  
H 12.7290000   19.1430000   21.8850000  
C 15.7660000   22.6100000   22.5420000  
C 16.2500000   23.5360000   21.5660000  
C 16.1270000   24.8830000   21.7210000  
C 15.5780000   25.4360000   22.9360000  
C 14.9610000   24.5740000   23.9020000  
C 15.0910000   23.1760000   23.7270000  
C 16.8650000   23.3120000   20.2960000  
C 16.9220000   24.5200000   19.6660000  
N 16.5640000   25.4980000   20.6050000  
O 17.6570000   23.5680000   17.6100000  
C 17.3290000   24.7020000   18.2470000  
O 17.3510000   25.8000000   17.7620000  
O 14.2880000   25.2050000   24.8520000  
O 14.5790000   22.3630000   24.7270000  
H 16.9680000   22.3030000   19.8290000  
H 17.6530000   22.7790000   18.1970000  
H 16.8510000   26.4330000   20.4630000  
H 14.7130000   26.1220000   24.9210000  
H 14.3650000   22.8300000   25.5600000  
H 15.6170000   26.5490000   23.1390000  
