76
100 
C  8.5310000   15.4290000   23.1370000  
C  8.7730000   14.3560000   24.0730000  
C 10.0490000   14.1810000   24.5410000  
C 11.1450000   14.9490000   24.1530000  
C 11.0610000   15.9790000   23.3150000  
C  9.7410000   16.3150000   22.7400000  
C 10.5120000   13.1270000   25.3440000  
C 11.9030000   13.1230000   25.2500000  
N 12.2720000   14.2440000   24.4990000  
O 12.1120000   11.0290000   26.3720000  
C 12.7860000   12.0450000   25.7740000  
O 14.0190000   11.8850000   25.6810000  
O  9.6310000   17.2500000   21.9020000  
O  7.4240000   15.6770000   22.6900000  
H  7.8790000   13.7890000   24.3260000  
H  9.8950000   12.4320000   25.7400000  
H 11.1750000   11.2870000   26.1860000  
H 13.2690000   14.5060000   24.2010000  
C 12.3220000   16.7200000   23.0410000  
C 12.8730000   16.5200000   21.7580000  
C 14.0680000   17.0360000   21.4730000  
C 14.8040000   17.9010000   22.2530000  
C 14.2200000   18.1770000   23.5440000  
C 12.9590000   17.6400000   23.9000000  
C 12.4920000   15.6380000   20.6220000  
C 13.5770000   15.6690000   19.7300000  
N 14.5180000   16.5850000   20.2470000  
O 12.6130000   14.0520000   18.2340000  
C 13.6960000   14.8610000   18.4720000  
O 14.6480000   14.8660000   17.7200000  
O 14.8030000   19.1250000   24.3190000  
O 12.4510000   17.7140000   25.1370000  
H 11.6530000   15.0440000   20.4030000  
H 11.9890000   14.2360000   18.9060000  
H 15.3240000   16.9880000   19.7890000  
H 15.7420000   19.0040000   24.0830000  
H 12.8230000   18.4420000   25.6630000  
C 16.1390000   18.4910000   21.8540000  
C 16.3550000   19.1760000   20.6790000  
C 17.5800000   19.6790000   20.3750000  
C 18.8180000   19.2950000   21.0070000  
C 18.5970000   18.5580000   22.2240000  
C 17.2920000   18.2090000   22.6290000  
C 15.4900000   19.5940000   19.5860000  
C 16.2460000   20.2310000   18.6080000  
N 17.6180000   20.2590000   19.1150000  
O 14.5670000   20.2510000   16.9570000  
C 15.8350000   20.6360000   17.2400000  
O 16.5060000   21.2140000   16.3880000  
O 19.6500000   18.0570000   22.8310000  
O 17.1040000   17.4240000   23.7020000  
H 14.3970000   19.3720000   19.4820000  
H 14.2960000   19.7270000   17.7390000  
H 18.4160000   20.7420000   18.7440000  
H 20.3870000   18.1370000   22.2050000  
H 17.9670000   17.2210000   24.1030000  
C 20.1980000   19.5280000   20.4170000  
C 21.1720000   20.1440000   21.2060000  
C 22.5100000   20.1220000   20.7370000  
C 22.9600000   19.5850000   19.5030000  
C 21.9320000   19.1120000   18.6870000  
C 20.6080000   19.0710000   19.1240000  
C 21.1680000   20.7980000   22.4640000  
C 22.4850000   21.3230000   22.6410000  
N 23.2890000   20.8180000   21.6120000  
O 22.0640000   22.8120000   24.3910000  
C 23.0340000   22.2840000   23.6340000  
O 24.2130000   22.5850000   23.7740000  
O 22.2250000   18.6430000   17.4360000  
O 19.6230000   18.6030000   18.2970000  
H 20.2980000   21.1540000   23.0180000  
H 21.2930000   22.3010000   24.0130000  
H 24.2560000   21.0410000   21.6120000  
H 23.2410000   18.8520000   17.4570000  
H 20.0570000   18.0760000   17.6210000  
H 24.0480000   19.5530000   19.2520000  
