76
100 
C 16.5750000   10.2150000   22.5840000  
C 17.2250000    9.9920000   23.9170000  
C 17.6100000   11.1130000   24.6420000  
C 17.4270000   12.4550000   24.2890000  
C 16.7880000   12.7900000   23.0850000  
C 16.2630000   11.7610000   22.1950000  
C 18.4950000   11.1760000   25.7830000  
C 18.7250000   12.5260000   26.0470000  
N 18.0550000   13.2890000   25.1150000  
O 20.1510000   12.1110000   28.0260000  
C 19.4800000   12.9990000   27.2420000  
O 19.7100000   14.2170000   27.3760000  
O 15.5830000   12.1190000   21.2650000  
O 16.2760000    9.2940000   21.8250000  
H 17.3630000    9.0100000   24.2410000  
H 18.8910000   10.2350000   26.2690000  
H 20.0150000   11.2410000   27.6060000  
H 18.1400000   14.2530000   24.9230000  
C 16.6350000   14.1800000   22.8190000  
C 17.4010000   14.9430000   21.9010000  
C 17.0120000   16.1750000   21.5280000  
C 15.9380000   16.9040000   22.0410000  
C 15.2610000   16.2400000   23.0710000  
C 15.5920000   14.9420000   23.4140000  
C 18.3620000   14.4880000   20.9640000  
C 18.4150000   15.4880000   19.9980000  
N 17.7110000   16.5740000   20.4370000  
O 20.0300000   14.5660000   18.5380000  
C 19.1860000   15.5890000   18.8090000  
O 19.1520000   16.5860000   18.1000000  
O 14.1690000   16.8040000   23.6680000  
O 14.7340000   14.2910000   24.3290000  
H 18.9300000   13.5440000   20.9240000  
H 19.9500000   14.0520000   19.3790000  
H 17.5700000   17.4320000   19.9990000  
H 13.9960000   17.6590000   23.2750000  
H 13.9620000   14.9110000   24.3970000  
C 15.6670000   18.2500000   21.5310000  
C 15.2040000   18.5650000   20.2610000  
C 14.9360000   19.8560000   19.8590000  
C 14.9710000   21.0300000   20.6710000  
C 15.6120000   20.7260000   21.9060000  
C 16.0130000   19.4000000   22.2800000  
C 15.0950000   17.7060000   19.0290000  
C 14.6330000   18.5500000   18.0340000  
N 14.5430000   19.8120000   18.5340000  
O 14.2940000   16.8830000   16.2930000  
C 14.2590000   18.2170000   16.6760000  
O 13.8480000   19.0890000   15.9150000  
O 15.9000000   21.7710000   22.6880000  
O 16.6310000   19.1930000   23.4310000  
H 15.3480000   16.6380000   18.8710000  
H 14.7200000   16.3670000   16.9210000  
H 14.1310000   20.5210000   18.0030000  
H 15.7240000   22.6030000   22.2300000  
H 17.2130000   18.4570000   23.3580000  
C 14.5120000   22.4100000   20.2750000  
C 13.5250000   23.1440000   21.0770000  
C 13.1720000   24.4300000   20.7590000  
C 13.6580000   25.1180000   19.6060000  
C 14.7090000   24.4800000   18.8810000  
C 15.0530000   23.1710000   19.1980000  
C 12.8970000   22.7660000   22.3330000  
C 12.1470000   23.8850000   22.7580000  
N 12.3570000   24.9130000   21.7700000  
O 11.3360000   22.9070000   24.8270000  
C 11.4850000   24.0530000   24.1490000  
O 11.1320000   25.0620000   24.6890000  
O 15.2590000   25.0290000   17.6980000  
O 16.0700000   22.6010000   18.4350000  
H 13.0410000   21.7850000   22.9220000  
H 11.3440000   22.1890000   24.2030000  
H 11.9120000   25.8590000   21.7420000  
H 15.0830000   25.9610000   17.7460000  
H 16.1950000   23.2510000   17.8210000  
H 13.3610000   26.1470000   19.4770000  
