76
100 
C 14.8960000   11.1970000   24.9420000  
C 16.2080000   10.4930000   24.7430000  
C 16.9930000   10.9210000   23.7490000  
C 16.7710000   11.9880000   22.9560000  
C 15.7900000   12.8460000   23.1410000  
C 14.7270000   12.5840000   24.1740000  
C 18.3280000   10.4360000   23.4190000  
C 18.7900000   11.1180000   22.3010000  
N 17.8030000   12.0410000   22.0380000  
O 20.9270000   10.0530000   21.9920000  
C 20.1020000   11.0410000   21.6180000  
O 20.4480000   11.8510000   20.7440000  
O 13.8240000   13.3250000   24.4970000  
O 14.0860000   10.8340000   25.7460000  
H 16.5570000    9.8140000   25.4680000  
H 18.8900000    9.6190000   23.8350000  
H 20.5610000    9.4800000   22.6970000  
H 17.8600000   12.6780000   21.2630000  
C 15.8760000   14.0910000   22.4210000  
C 14.9950000   14.4630000   21.4200000  
C 15.0250000   15.7760000   20.9700000  
C 15.8690000   16.7860000   21.3900000  
C 16.7270000   16.4100000   22.4220000  
C 16.8210000   15.0690000   22.8410000  
C 13.9810000   13.7850000   20.7280000  
C 13.4130000   14.6470000   19.8600000  
N 14.0900000   15.9230000   20.0080000  
O 11.9260000   13.0600000   19.0520000  
C 12.2490000   14.3920000   19.0340000  
O 11.7310000   15.2190000   18.2900000  
O 17.6340000   17.3060000   22.9110000  
O 17.6140000   14.7670000   23.9140000  
H 13.6690000   12.7360000   20.9450000  
H 12.2270000   12.7410000   19.8850000  
H 13.8770000   16.7710000   19.5390000  
H 17.2460000   18.2470000   22.7600000  
H 17.8820000   15.6390000   24.2870000  
C 15.6870000   18.2430000   21.1000000  
C 14.7580000   19.0110000   21.7360000  
C 14.6370000   20.3810000   21.6060000  
C 15.5700000   21.1390000   20.8370000  
C 16.5900000   20.3550000   20.2010000  
C 16.6300000   18.9250000   20.3220000  
C 13.7330000   18.6590000   22.6540000  
C 13.0470000   19.7840000   22.9940000  
N 13.6840000   20.8730000   22.3690000  
O 11.4600000   18.7350000   24.4270000  
C 11.8980000   19.8790000   23.9120000  
O 11.3390000   20.9310000   24.1140000  
O 17.4520000   20.9490000   19.3250000  
O 17.3850000   18.2010000   19.4770000  
H 13.5610000   17.6670000   23.0470000  
H 12.0340000   17.9490000   24.1400000  
H 13.4090000   21.8340000   22.4140000  
H 17.3180000   21.9240000   19.4380000  
H 16.9580000   17.3830000   19.2920000  
C 15.4890000   22.6760000   20.6620000  
C 16.6690000   23.4450000   20.6540000  
C 16.6390000   24.7880000   20.4500000  
C 15.4760000   25.5050000   20.2330000  
C 14.2570000   24.7610000   20.1670000  
C 14.2780000   23.4040000   20.3050000  
C 17.9690000   23.0550000   21.0600000  
C 18.6950000   24.2400000   21.0920000  
N 17.9010000   25.3230000   20.5520000  
O 20.7950000   23.3100000   21.7670000  
C 20.0970000   24.4260000   21.4820000  
O 20.7010000   25.4550000   21.6960000  
O 13.1340000   25.4800000   19.8840000  
O 13.1010000   22.7050000   20.1640000  
H 18.2730000   22.0930000   21.4040000  
H 20.2080000   22.5430000   21.8680000  
H 18.1810000   26.2450000   20.4440000  
H 13.4240000   26.4420000   19.8260000  
H 12.4780000   23.3800000   20.0660000  
H 15.4240000   26.5770000   20.0190000  
