76
100 
C 18.4640000   11.6830000   24.7100000  
C 19.6480000   11.9660000   25.5610000  
C 20.2070000   13.2360000   25.5660000  
C 19.5880000   14.3100000   24.9060000  
C 18.4690000   14.1820000   24.1160000  
C 17.7650000   12.8870000   23.9980000  
C 21.4090000   13.7200000   26.0920000  
C 21.5570000   15.0320000   25.7940000  
N 20.3610000   15.4430000   25.1910000  
O 23.7270000   15.1710000   26.8240000  
C 22.7040000   15.8840000   26.1910000  
O 22.8030000   17.1020000   26.0100000  
O 16.5980000   12.7690000   23.5930000  
O 18.0690000   10.4990000   24.5680000  
H 20.0840000   11.1320000   26.1820000  
H 22.1510000   13.0830000   26.5790000  
H 23.3870000   14.2700000   26.9700000  
H 20.2180000   16.4080000   24.8590000  
C 17.8760000   15.2990000   23.5510000  
C 17.8240000   15.3980000   22.1410000  
C 17.2640000   16.4830000   21.5700000  
C 16.5730000   17.4920000   22.3140000  
C 16.5530000   17.3750000   23.7240000  
C 17.2430000   16.2940000   24.2950000  
C 18.2490000   14.5290000   21.0540000  
C 17.8260000   15.1280000   19.8680000  
N 17.2700000   16.4120000   20.1960000  
O 18.3870000   13.4800000   18.3550000  
C 17.8500000   14.6820000   18.4810000  
O 17.3410000   15.2350000   17.4940000  
O 15.9720000   18.2880000   24.5850000  
O 17.3250000   16.1740000   25.7130000  
H 18.7360000   13.5290000   21.1630000  
H 18.7030000   13.1970000   19.2420000  
H 16.9200000   17.0780000   19.5240000  
H 15.5580000   19.0490000   24.0270000  
H 16.8860000   16.8970000   26.1990000  
C 15.7850000   18.5470000   21.6660000  
C 14.8020000   18.1130000   20.7680000  
C 13.9650000   18.9950000   20.1790000  
C 14.1260000   20.3770000   20.2590000  
C 15.1930000   20.8320000   21.1190000  
C 15.9770000   19.9200000   21.8960000  
C 14.1860000   16.8460000   20.4580000  
C 13.0700000   17.0420000   19.6450000  
N 12.9540000   18.4010000   19.4610000  
O 12.5410000   14.6970000   19.4710000  
C 12.1460000   15.9800000   19.2150000  
O 11.0680000   16.2150000   18.6990000  
O 15.4970000   22.0830000   21.2390000  
O 17.0500000   20.3540000   22.5680000  
H 14.5530000   15.9100000   20.9500000  
H 13.3540000   14.9240000   19.9760000  
H 12.2440000   18.8570000   18.9620000  
H 14.9880000   22.6440000   20.5890000  
H 17.0330000   21.2990000   22.5110000  
C 13.4260000   21.2540000   19.3560000  
C 12.3740000   22.0390000   19.8550000  
C 11.4880000   22.6800000   19.0180000  
C 11.5260000   22.5430000   17.6520000  
C 12.6030000   21.8040000   17.1030000  
C 13.5390000   21.1270000   17.8990000  
C 11.9350000   22.2190000   21.1920000  
C 10.8210000   23.0110000   21.1090000  
N 10.4820000   23.2090000   19.7650000  
O 10.3710000   23.1320000   23.4760000  
C  9.9240000   23.5170000   22.2170000  
O  8.9330000   24.2140000   22.0360000  
O 12.5980000   21.6740000   15.7470000  
O 14.4920000   20.3870000   17.2990000  
H 12.3900000   21.9960000   22.2040000  
H 11.0670000   22.4940000   23.2550000  
H  9.6350000   23.6210000   19.4970000  
H 11.9690000   22.3610000   15.3240000  
H 14.4440000   20.5450000   16.3870000  
H 10.7390000   22.9520000   17.0070000  
