76
100 
C 19.9280000   17.0120000   28.4410000  
C 19.8130000   15.5640000   28.5500000  
C 19.4170000   14.7560000   27.4970000  
C 18.9850000   15.3490000   26.3350000  
C 18.7700000   16.6910000   26.1400000  
C 19.2770000   17.6510000   27.1470000  
C 19.3270000   13.3610000   27.3870000  
C 18.8880000   13.1040000   26.0280000  
N 18.6140000   14.3710000   25.4840000  
O 19.4030000   10.8600000   26.1050000  
C 18.7650000   11.8080000   25.4210000  
O 18.2700000   11.6230000   24.3360000  
O 19.0890000   18.8360000   27.0180000  
O 20.3960000   17.7300000   29.3710000  
H 20.0520000   15.1110000   29.5630000  
H 19.6050000   12.6670000   28.1930000  
H 19.8410000   11.2930000   26.8840000  
H 18.0290000   14.5400000   24.6610000  
C 18.2240000   17.0750000   24.7930000  
C 16.8610000   17.5600000   24.7150000  
C 16.2170000   17.7660000   23.5430000  
C 16.8490000   17.6280000   22.2670000  
C 18.2130000   17.3010000   22.3510000  
C 18.8730000   17.0130000   23.5530000  
C 15.8670000   17.7800000   25.7630000  
C 14.6590000   17.9610000   25.1010000  
N 14.8680000   17.9480000   23.6770000  
O 13.3960000   17.9090000   27.1460000  
C 13.3600000   17.9610000   25.7710000  
O 12.2920000   17.8880000   25.1280000  
O 18.8400000   17.1270000   21.1140000  
O 20.1500000   16.6240000   23.5870000  
H 16.0040000   17.8700000   26.8280000  
H 14.3420000   17.7060000   27.3450000  
H 14.2540000   17.7710000   22.9250000  
H 18.2340000   17.4160000   20.4180000  
H 20.2810000   16.3320000   22.6560000  
C 16.0900000   17.5450000   21.0000000  
C 15.5920000   18.7870000   20.4990000  
C 14.7780000   18.8270000   19.3960000  
C 14.2940000   17.7640000   18.6580000  
C 14.8430000   16.5480000   19.1360000  
C 15.7450000   16.4220000   20.2460000  
C 15.6260000   20.1330000   21.0430000  
C 14.8820000   20.9840000   20.2220000  
N 14.3600000   20.1170000   19.2330000  
O 15.2800000   23.0130000   21.3300000  
C 14.4690000   22.4000000   20.4010000  
O 13.6090000   23.0420000   19.7870000  
O 14.6160000   15.3870000   18.4730000  
O 16.1810000   15.1910000   20.7100000  
H 16.1920000   20.4010000   21.8980000  
H 15.8110000   22.3480000   21.6460000  
H 13.9320000   20.4070000   18.3900000  
H 13.7100000   15.3420000   18.0720000  
H 16.9540000   15.3630000   21.2620000  
C 13.2690000   17.9100000   17.6320000  
C 13.4230000   18.8370000   16.5840000  
C 12.3800000   19.1040000   15.7450000  
C 11.2370000   18.3320000   15.6530000  
C 10.9940000   17.3620000   16.6790000  
C 12.0260000   17.1500000   17.6290000  
C 14.4560000   19.8000000   16.1520000  
C 13.9050000   20.5680000   15.0900000  
N 12.6060000   20.1960000   14.9000000  
O 15.7640000   21.9580000   14.6900000  
C 14.5420000   21.6650000   14.2960000  
O 13.9220000   22.3400000   13.5270000  
O  9.8440000   16.6160000   16.5900000  
O 11.8280000   16.1820000   18.5150000  
H 15.4370000   20.0190000   16.6530000  
H 15.9050000   21.3590000   15.4780000  
H 12.0970000   20.4120000   14.0880000  
H  9.2490000   17.0130000   15.9380000  
H 11.0370000   15.7920000   18.2540000  
H 10.4570000   18.6180000   14.9000000  
