76
100 
C 10.1960000   13.1370000   19.8960000  
C  9.8020000   12.2970000   21.0550000  
C 10.4380000   12.5240000   22.2280000  
C 11.3870000   13.5450000   22.4050000  
C 11.9380000   14.2780000   21.4010000  
C 11.4410000   14.0220000   20.0550000  
C 10.2560000   11.9600000   23.4970000  
C 11.0600000   12.6390000   24.4170000  
N 11.7490000   13.5180000   23.6650000  
O 10.2600000   11.4910000   26.2400000  
C 11.0620000   12.5400000   25.8610000  
O 11.7750000   13.1860000   26.5940000  
O 11.8950000   14.5480000   19.1180000  
O  9.5010000   13.1080000   18.8720000  
H  8.9330000   11.6330000   20.9600000  
H  9.4270000   11.3080000   23.7370000  
H  9.9230000   11.0130000   25.4920000  
H 12.4920000   14.1500000   24.0180000  
C 12.9970000   15.2040000   21.7530000  
C 14.3490000   14.9390000   21.5280000  
C 15.3220000   15.8810000   21.7840000  
C 15.1250000   17.1580000   22.1660000  
C 13.7700000   17.5000000   22.3800000  
C 12.6910000   16.5420000   22.1300000  
C 15.0320000   13.8140000   20.9600000  
C 16.3490000   14.2140000   20.7960000  
N 16.5670000   15.4570000   21.4330000  
O 17.0320000   12.1340000   19.7740000  
C 17.4160000   13.3700000   20.1900000  
O 18.5180000   13.8460000   19.9770000  
O 13.4590000   18.7850000   22.6630000  
O 11.3750000   17.0080000   22.3380000  
H 14.6100000   12.8210000   20.7270000  
H 16.2510000   11.7610000   20.2700000  
H 17.4150000   15.9870000   21.3870000  
H 14.3190000   19.2470000   22.6690000  
H 11.3540000   17.8320000   22.8750000  
C 16.2610000   18.1340000   22.3890000  
C 17.0110000   18.4990000   21.2460000  
C 17.9630000   19.4190000   21.3980000  
C 18.4300000   20.0380000   22.5590000  
C 17.6800000   19.6960000   23.7080000  
C 16.6210000   18.7620000   23.6250000  
C 16.9300000   18.1390000   19.8940000  
C 17.7500000   18.9560000   19.2030000  
N 18.5770000   19.5890000   20.1830000  
O 17.2750000   18.2080000   17.0050000  
C 17.9470000   19.0990000   17.7400000  
O 18.7160000   19.8550000   17.1430000  
O 17.9760000   20.2190000   24.9570000  
O 15.7470000   18.5730000   24.6140000  
H 16.2760000   17.2910000   19.4850000  
H 16.7650000   17.6660000   17.6760000  
H 19.3500000   20.2200000   19.9990000  
H 18.3730000   21.1230000   24.8180000  
H 15.8910000   19.2010000   25.4100000  
C 19.5950000   21.0310000   22.5900000  
C 19.5630000   22.2530000   21.8110000  
C 20.4540000   23.2530000   21.8900000  
C 21.5150000   23.2370000   22.8140000  
C 21.6600000   22.0360000   23.5820000  
C 20.7270000   20.9440000   23.4370000  
C 18.6790000   22.7040000   20.7130000  
C 18.9510000   24.0300000   20.3590000  
N 20.0950000   24.3130000   21.0550000  
O 16.9800000   24.5150000   19.1030000  
C 18.1230000   24.9980000   19.6390000  
O 18.4410000   26.1870000   19.5540000  
O 22.7230000   21.9290000   24.4030000  
O 20.9500000   19.8250000   24.2300000  
H 17.7180000   22.2710000   20.4680000  
H 17.1980000   23.5580000   19.1580000  
H 20.3780000   25.2600000   21.1660000  
H 23.4450000   22.5330000   24.1980000  
H 21.7540000   20.0740000   24.6150000  
H 22.2090000   24.1140000   22.8590000  
