76
100 
C 18.4350000   11.2390000   24.9080000  
C 19.8710000   11.2960000   24.7540000  
C 20.5270000   12.3210000   24.0670000  
C 19.8720000   13.4300000   23.5640000  
C 18.5140000   13.6290000   23.7260000  
C 17.7040000   12.6180000   24.4660000  
C 21.8710000   12.4390000   23.7800000  
C 21.9960000   13.6410000   23.0980000  
N 20.7560000   14.2660000   22.9240000  
O 24.3210000   13.3110000   22.8380000  
C 23.2960000   14.0810000   22.5600000  
O 23.4700000   15.0030000   21.7600000  
O 16.5530000   12.8700000   24.7730000  
O 17.8790000   10.2100000   25.2740000  
H 20.3900000   10.4530000   25.1250000  
H 22.5990000   11.6630000   23.9990000  
H 23.8980000   12.5080000   23.2170000  
H 20.6350000   15.1680000   22.5170000  
C 17.9680000   14.9210000   23.3010000  
C 17.1630000   15.0210000   22.1780000  
C 16.4850000   16.1850000   21.8840000  
C 16.5500000   17.4050000   22.6110000  
C 17.3520000   17.3530000   23.7590000  
C 17.9860000   16.1120000   24.0880000  
C 16.6940000   14.0320000   21.2620000  
C 15.7970000   14.6890000   20.4140000  
N 15.7260000   16.0600000   20.7810000  
O 15.2680000   12.6550000   19.2810000  
C 14.9080000   13.9770000   19.4690000  
O 13.9430000   14.5710000   19.0420000  
O 17.3780000   18.4190000   24.5950000  
O 18.7310000   16.1080000   25.2250000  
H 17.0210000   12.9270000   21.1990000  
H 16.2260000   12.6230000   19.3710000  
H 15.2850000   16.7930000   20.2450000  
H 16.9830000   19.1450000   24.1750000  
H 18.4060000   16.8070000   25.8470000  
C 15.8830000   18.5640000   22.0090000  
C 14.4820000   18.5330000   21.9270000  
C 13.8480000   19.5270000   21.2390000  
C 14.4140000   20.6250000   20.6220000  
C 15.8250000   20.6980000   20.8180000  
C 16.5310000   19.7050000   21.4850000  
C 13.4680000   17.5710000   22.3280000  
C 12.3130000   17.9500000   21.6430000  
N 12.5470000   19.2040000   20.9780000  
O 11.1010000   16.1140000   22.2250000  
C 11.0690000   17.2640000   21.5830000  
O 10.0780000   17.5360000   20.8920000  
O 16.4440000   21.7740000   20.3480000  
O 17.9400000   19.8250000   21.3890000  
H 13.5950000   16.6590000   22.8540000  
H 11.9240000   16.2380000   22.6930000  
H 11.8590000   19.7050000   20.3990000  
H 15.6960000   22.2850000   19.8490000  
H 18.1690000   20.6250000   20.7950000  
C 13.7270000   21.5980000   19.7210000  
C 12.9270000   22.6510000   20.1620000  
C 12.3870000   23.5800000   19.2750000  
C 12.5740000   23.5100000   17.8720000  
C 13.3500000   22.3740000   17.4360000  
C 14.0120000   21.5760000   18.3060000  
C 12.2970000   22.9570000   21.4400000  
C 11.6240000   24.1360000   21.2810000  
N 11.7260000   24.5680000   19.9810000  
O 10.7660000   24.1760000   23.4850000  
C 10.8700000   24.8720000   22.3570000  
O 10.4060000   25.9450000   22.2710000  
O 13.4210000   22.1150000   16.1000000  
O 14.7200000   20.5380000   17.7600000  
H 12.3750000   22.5380000   22.3720000  
H 11.1860000   23.2780000   23.3910000  
H 11.5960000   25.5090000   19.6200000  
H 12.7020000   22.4590000   15.6060000  
H 14.7770000   20.8040000   16.8100000  
H 12.1210000   24.2440000   17.1650000  
