76
100 
C 21.3960000   15.5930000   26.8280000  
C 20.4410000   15.7230000   27.9520000  
C 19.1440000   16.1070000   27.7300000  
C 18.5880000   16.1730000   26.4470000  
C 19.3490000   16.1710000   25.2760000  
C 20.8190000   16.0460000   25.3690000  
C 18.0230000   16.1600000   28.6230000  
C 16.8280000   16.2920000   27.8530000  
N 17.1810000   16.2070000   26.5160000  
O 15.3080000   16.6110000   29.6650000  
C 15.4100000   16.5240000   28.3180000  
O 14.4670000   16.8380000   27.6630000  
O 21.5470000   16.0070000   24.3820000  
O 22.5400000   15.1590000   27.0880000  
H 20.8560000   15.4430000   28.9820000  
H 18.0570000   16.1290000   29.7790000  
H 16.1120000   16.1750000   29.9910000  
H 16.4400000   16.2290000   25.7820000  
C 18.4990000   16.4040000   24.1540000  
C 18.2130000   17.7500000   23.9510000  
C 17.4580000   18.0890000   22.9170000  
C 16.8510000   17.2490000   21.9940000  
C 17.1470000   15.8940000   22.2120000  
C 17.9720000   15.4560000   23.2900000  
C 18.5300000   18.9990000   24.6540000  
C 17.8810000   20.0250000   23.9830000  
N 17.1970000   19.4410000   22.8790000  
O 18.4690000   21.6140000   25.5940000  
C 17.9240000   21.4270000   24.3620000  
O 17.5370000   22.3850000   23.7190000  
O 16.4530000   14.9370000   21.5540000  
O 18.2230000   14.1830000   23.6430000  
H 19.2900000   18.9970000   25.4080000  
H 18.6140000   20.6690000   25.7860000  
H 16.7810000   19.8600000   22.0730000  
H 15.9300000   15.3900000   20.8850000  
H 17.4790000   13.6160000   23.3140000  
C 15.8810000   17.8100000   21.0250000  
C 16.2350000   17.9010000   19.6730000  
C 15.2530000   18.3010000   18.7890000  
C 13.9090000   18.6640000   19.1510000  
C 13.6920000   18.7720000   20.5140000  
C 14.5900000   18.2350000   21.4340000  
C 17.3920000   17.7080000   18.9080000  
C 17.0470000   17.9740000   17.6130000  
N 15.7100000   18.2940000   17.5160000  
O 19.1210000   17.2120000   16.7140000  
C 17.9500000   17.7780000   16.3870000  
O 17.6230000   18.0680000   15.2330000  
O 12.5220000   19.2040000   20.9770000  
O 14.2720000   18.2050000   22.7500000  
H 18.3240000   17.2870000   19.2570000  
H 19.0810000   17.0520000   17.7230000  
H 15.2110000   18.5490000   16.6590000  
H 11.8560000   19.3590000   20.2740000  
H 13.3200000   18.3980000   22.8570000  
C 12.8610000   19.0590000   18.1570000  
C 11.7800000   18.1900000   17.8300000  
C 10.9200000   18.5130000   16.7620000  
C 11.0540000   19.6760000   15.9500000  
C 12.0650000   20.5870000   16.3270000  
C 12.9100000   20.3120000   17.4290000  
C 11.4050000   16.8870000   18.3200000  
C 10.3610000   16.4430000   17.5340000  
N 10.0150000   17.4470000   16.6070000  
O 10.1220000   14.4180000   18.7560000  
C  9.6540000   15.1490000   17.7200000  
O  8.7360000   14.8130000   17.0020000  
O 12.2780000   21.6610000   15.6270000  
O 13.8930000   21.2060000   17.6980000  
H 12.0960000   16.3420000   18.9860000  
H 10.9400000   14.8580000   19.1010000  
H  9.2060000   17.4090000   15.9890000  
H 11.7240000   21.6460000   14.7890000  
H 13.8090000   21.9920000   17.0600000  
H 10.3640000   19.8480000   15.1170000  
