76
100 
C 12.9280000   15.2470000   28.4400000  
C 11.6090000   15.8570000   28.3530000  
C 11.2160000   16.4820000   27.1470000  
C 12.0490000   16.6680000   26.0500000  
C 13.3130000   16.1990000   25.9880000  
C 13.8380000   15.4180000   27.1760000  
C  9.9930000   17.1250000   26.8140000  
C 10.1190000   17.6780000   25.5740000  
N 11.4400000   17.3960000   25.1620000  
O  7.9370000   18.6900000   25.5060000  
C  9.2030000   18.6750000   24.9680000  
O  9.5250000   19.5170000   24.1810000  
O 14.9240000   14.8950000   27.3690000  
O 13.3360000   14.6870000   29.4190000  
H 10.9040000   15.6870000   29.0790000  
H  9.1260000   17.2140000   27.4910000  
H  7.9990000   18.0460000   26.2350000  
H 11.9200000   17.6810000   24.3420000  
C 14.0340000   16.4120000   24.7580000  
C 14.4180000   17.7640000   24.3330000  
C 14.9500000   18.0530000   23.1240000  
C 15.1210000   17.0540000   22.1110000  
C 14.7870000   15.7150000   22.5070000  
C 14.2830000   15.3590000   23.8030000  
C 14.3990000   19.0130000   25.0710000  
C 14.9760000   19.9920000   24.2780000  
N 15.1730000   19.3970000   22.9900000  
O 14.9220000   21.6680000   25.8100000  
C 15.2650000   21.3990000   24.5520000  
O 15.8150000   22.2010000   23.7880000  
O 14.8460000   14.7540000   21.5330000  
O 13.7970000   14.0540000   24.0350000  
H 14.1850000   19.0980000   26.1310000  
H 14.4930000   20.8770000   26.1460000  
H 15.6100000   19.7830000   22.1240000  
H 15.0570000   15.2190000   20.6740000  
H 14.2530000   13.4100000   23.3800000  
C 15.7640000   17.4120000   20.7630000  
C 16.9850000   18.0600000   20.7660000  
C 17.5900000   18.4070000   19.5520000  
C 17.0300000   18.2350000   18.2830000  
C 15.7190000   17.6070000   18.3040000  
C 15.1300000   17.2250000   19.5120000  
C 17.8970000   18.3740000   21.7970000  
C 18.9510000   19.1140000   21.1780000  
N 18.8010000   19.0970000   19.7640000  
O 20.0550000   19.4130000   23.3090000  
C 20.0310000   19.7080000   21.9850000  
O 20.9190000   20.3980000   21.4820000  
O 15.1220000   17.1430000   17.1480000  
O 13.9450000   16.6170000   19.4520000  
H 17.8360000   18.0970000   22.8380000  
H 19.3720000   18.7180000   23.4780000  
H 19.3610000   19.5470000   19.0980000  
H 15.6990000   17.5460000   16.4510000  
H 13.6410000   16.5210000   20.3650000  
C 17.9450000   18.3720000   17.0330000  
C 19.1930000   17.7150000   16.9900000  
C 19.9260000   17.6560000   15.8450000  
C 19.5230000   18.2870000   14.6840000  
C 18.2310000   18.8870000   14.7260000  
C 17.4810000   19.0000000   15.8610000  
C 19.8810000   16.8350000   17.8450000  
C 20.9220000   16.2580000   17.2270000  
N 20.9280000   16.7220000   15.9400000  
O 21.7290000   14.8930000   19.0330000  
C 21.8370000   15.2210000   17.7470000  
O 22.5990000   14.6320000   16.9650000  
O 17.9190000   19.5650000   13.6150000  
O 16.2320000   19.5840000   15.7690000  
H 19.7280000   16.7440000   18.9370000  
H 20.9700000   15.3450000   19.3980000  
H 21.5320000   16.3280000   15.1900000  
H 18.6720000   19.5630000   12.9410000  
H 16.1510000   20.1690000   14.9580000  
H 20.1210000   18.1960000   13.8300000  
