76
100 
C 16.0210000   10.6890000   23.4890000  
C 15.0130000    9.9070000   22.7080000  
C 14.2250000   10.5460000   21.7960000  
C 14.2270000   11.9210000   21.5800000  
C 14.9670000   12.7970000   22.3590000  
C 15.9460000   12.2600000   23.3450000  
C 13.1660000    9.9960000   21.0460000  
C 12.4920000   11.0230000   20.3660000  
N 13.1140000   12.1930000   20.8040000  
O 11.0410000    9.6060000   19.1070000  
C 11.3510000   10.8640000   19.4650000  
O 10.7060000   11.8110000   18.9110000  
O 16.6090000   13.0260000   24.0270000  
O 16.7690000   10.1970000   24.2630000  
H 14.9520000    8.8280000   22.9300000  
H 13.0390000    8.9150000   21.0250000  
H 11.8250000    9.1670000   19.5270000  
H 12.8430000   13.0880000   20.6140000  
C 14.8460000   14.2350000   22.0820000  
C 14.4530000   15.0960000   23.0490000  
C 14.5330000   16.4250000   22.9210000  
C 15.0790000   17.1100000   21.8190000  
C 15.5690000   16.2340000   20.7360000  
C 15.4270000   14.7970000   20.8680000  
C 13.9760000   14.8050000   24.4020000  
C 13.8610000   16.0490000   25.0580000  
N 14.2350000   17.0700000   24.1220000  
O 13.6750000   15.1260000   27.2910000  
C 13.7670000   16.2060000   26.5480000  
O 13.5790000   17.2980000   26.9700000  
O 16.1760000   16.8060000   19.6510000  
O 15.8580000   13.9900000   19.8350000  
H 13.6580000   13.7980000   24.8400000  
H 14.0400000   14.4390000   26.6470000  
H 14.5400000   17.9940000   24.3540000  
H 16.0710000   17.7650000   19.5520000  
H 16.0210000   14.5050000   19.0520000  
C 15.3080000   18.5930000   21.8660000  
C 16.6180000   19.0870000   22.1040000  
C 16.7830000   20.4570000   21.9570000  
C 15.8700000   21.3280000   21.4120000  
C 14.6030000   20.7860000   21.1160000  
C 14.3050000   19.4450000   21.3630000  
C 17.9350000   18.5210000   22.5120000  
C 18.7900000   19.6280000   22.5490000  
N 18.0670000   20.8210000   22.2090000  
O 20.8070000   18.2640000   22.5540000  
C 20.2420000   19.5000000   22.5820000  
O 21.0070000   20.4540000   22.6380000  
O 13.6630000   21.6020000   20.5370000  
O 13.1100000   18.8640000   21.0430000  
H 18.1630000   17.4670000   22.5540000  
H 19.9960000   17.7410000   22.4090000  
H 18.5110000   21.6920000   22.0380000  
H 14.0990000   22.4510000   20.4510000  
H 13.1290000   17.9680000   21.4260000  
C 16.2370000   22.7540000   21.1320000  
C 17.2950000   23.0840000   20.2200000  
C 17.7470000   24.3560000   20.1180000  
C 16.9740000   25.4680000   20.5720000  
C 15.9580000   25.1970000   21.5180000  
C 15.5680000   23.8540000   21.7760000  
C 18.2140000   22.2300000   19.4380000  
C 19.2340000   23.0500000   18.8990000  
N 18.9040000   24.3810000   19.2860000  
O 20.7120000   21.3370000   17.9410000  
C 20.5140000   22.7220000   18.1510000  
O 21.4050000   23.5060000   17.8900000  
O 15.3660000   26.2120000   22.1710000  
O 14.5450000   23.6250000   22.6350000  
H 18.1650000   21.1240000   19.3070000  
H 19.9380000   20.9020000   18.2610000  
H 19.4960000   25.2310000   19.2140000  
H 15.5900000   26.9970000   21.6490000  
H 14.2580000   24.5520000   22.7780000  
H 17.2270000   26.5460000   20.3900000  
