76
100 
C 15.1120000   10.1810000   19.5230000  
C 13.7560000   10.0760000   20.1630000  
C 13.2140000   11.1640000   20.8520000  
C 13.9020000   12.3300000   21.0520000  
C 15.1180000   12.5820000   20.4570000  
C 15.7750000   11.6440000   19.5830000  
C 11.9470000   11.3140000   21.5400000  
C 11.9150000   12.5860000   22.0650000  
N 13.1050000   13.1880000   21.7170000  
O  9.6160000   12.4310000   22.7750000  
C 10.7240000   13.2360000   22.6830000  
O 10.7410000   14.3800000   23.1740000  
O 16.6400000   11.9760000   18.7710000  
O 15.6960000    9.2800000   19.0220000  
H 13.2650000    9.0780000   20.0870000  
H 11.1580000   10.5360000   21.6400000  
H 10.0280000   11.6050000   22.4440000  
H 13.3910000   14.0970000   21.9840000  
C 15.4770000   13.9410000   20.5940000  
C 15.8680000   14.4350000   21.8840000  
C 15.8780000   15.7580000   22.1860000  
C 15.6500000   16.7620000   21.2630000  
C 15.1830000   16.2960000   19.9900000  
C 14.9990000   14.9150000   19.6890000  
C 16.1670000   13.7520000   23.1200000  
C 16.3260000   14.7350000   24.1260000  
N 16.0220000   15.9670000   23.5280000  
O 16.5300000   13.3480000   26.0390000  
C 16.4050000   14.5920000   25.6190000  
O 16.3360000   15.4530000   26.4530000  
O 14.9210000   17.1940000   19.0460000  
O 14.3580000   14.5520000   18.4740000  
H 16.4900000   12.6610000   23.1950000  
H 16.5920000   12.8370000   25.2170000  
H 16.0240000   16.7990000   24.0950000  
H 15.3600000   18.0770000   19.2720000  
H 14.3460000   15.3160000   17.9000000  
C 15.7990000   18.2050000   21.6660000  
C 17.0440000   18.8700000   21.4300000  
C 17.2420000   20.0840000   21.9820000  
C 16.2430000   20.8400000   22.6030000  
C 15.0000000   20.1910000   22.8050000  
C 14.8040000   18.8750000   22.3270000  
C 18.2890000   18.4640000   20.9310000  
C 19.1560000   19.5680000   21.1010000  
N 18.5010000   20.5860000   21.8070000  
O 20.9550000   18.3840000   20.0320000  
C 20.5270000   19.5530000   20.6730000  
O 21.3070000   20.4600000   20.8710000  
O 14.0460000   20.8900000   23.4230000  
O 13.6550000   18.1910000   22.6190000  
H 18.4750000   17.4230000   20.6240000  
H 20.2800000   17.7010000   20.1150000  
H 18.8190000   21.3800000   22.2850000  
H 14.5390000   21.7550000   23.7150000  
H 13.1870000   18.8050000   23.1500000  
C 16.5390000   22.2620000   22.9200000  
C 16.9260000   23.1740000   21.8860000  
C 17.2030000   24.4440000   22.1400000  
C 17.2050000   24.9710000   23.4040000  
C 16.7600000   24.2150000   24.4730000  
C 16.4220000   22.8740000   24.2300000  
C 17.0750000   22.9860000   20.4710000  
C 17.2990000   24.2480000   19.9180000  
N 17.4830000   25.1370000   20.9790000  
O 16.7100000   23.8340000   17.7980000  
C 17.3930000   24.6410000   18.5480000  
O 17.8950000   25.6760000   18.1660000  
O 16.5670000   24.7560000   25.6970000  
O 16.0600000   22.0990000   25.2530000  
H 16.9900000   22.0730000   19.8030000  
H 16.1600000   23.2580000   18.3820000  
H 17.8440000   26.0570000   20.8360000  
H 17.1630000   25.4920000   25.8360000  
H 16.0810000   22.5530000   26.0740000  
H 17.4670000   26.0440000   23.6140000  
