76
100 
C 13.6420000   16.8130000   28.9090000  
C 14.3800000   17.8730000   29.6750000  
C 15.3080000   18.7280000   29.0630000  
C 15.5300000   18.6170000   27.6650000  
C 14.8440000   17.7440000   26.8560000  
C 14.0090000   16.6700000   27.3820000  
C 16.0060000   19.9160000   29.4540000  
C 16.7810000   20.4070000   28.3870000  
N 16.4130000   19.6240000   27.2950000  
O 17.6470000   22.1990000   29.6670000  
C 17.4900000   21.7000000   28.4000000  
O 17.9330000   22.1650000   27.3820000  
O 13.5810000   15.7610000   26.7910000  
O 12.8850000   16.0380000   29.4300000  
H 14.1370000   17.9630000   30.6750000  
H 15.8240000   20.4070000   30.4390000  
H 17.1880000   21.4830000   30.1790000  
H 16.5840000   19.8360000   26.2980000  
C 15.2520000   17.8570000   25.4470000  
C 15.8000000   16.7590000   24.7470000  
C 16.0320000   16.7990000   23.4200000  
C 15.7090000   17.8590000   22.5570000  
C 15.1440000   18.9840000   23.1660000  
C 15.0040000   19.0180000   24.5800000  
C 16.1590000   15.4510000   25.1890000  
C 16.6710000   14.7860000   24.1350000  
N 16.5500000   15.6240000   22.9690000  
O 17.1330000   12.6410000   25.2610000  
C 17.1470000   13.4220000   24.1330000  
O 17.6120000   12.9710000   23.1200000  
O 14.7120000   20.0430000   22.5130000  
O 14.4580000   20.1410000   25.1600000  
H 15.8790000   15.0710000   26.1780000  
H 16.5960000   13.0900000   25.9320000  
H 16.8170000   15.4520000   21.9870000  
H 14.1830000   19.6900000   21.7350000  
H 14.4290000   20.7910000   24.4310000  
C 15.9840000   17.7880000   21.0460000  
C 15.4430000   16.7640000   20.2090000  
C 15.7900000   16.6260000   18.8770000  
C 16.5520000   17.5470000   18.1170000  
C 17.0930000   18.5450000   18.9120000  
C 16.8380000   18.7020000   20.3170000  
C 14.6060000   15.6700000   20.6140000  
C 14.4320000   14.8350000   19.4850000  
N 15.0010000   15.5750000   18.3630000  
O 13.4750000   13.0160000   20.6290000  
C 13.7300000   13.5230000   19.4420000  
O 13.4210000   13.0020000   18.3930000  
O 17.7820000   19.5270000   18.2580000  
O 17.5640000   19.6150000   21.0520000  
H 14.3180000   15.4390000   21.5920000  
H 13.5000000   13.7700000   21.3140000  
H 15.1510000   15.2180000   17.4200000  
H 18.2740000   19.2160000   17.4840000  
H 17.3290000   19.3690000   21.9940000  
C 16.7440000   17.4000000   16.6000000  
C 16.2750000   18.4460000   15.7550000  
C 16.4990000   18.4880000   14.4120000  
C 17.1880000   17.4160000   13.7550000  
C 17.6290000   16.3150000   14.5630000  
C 17.4350000   16.3210000   15.9750000  
C 15.5800000   19.6860000   16.1180000  
C 15.4670000   20.3960000   14.9590000  
N 16.0450000   19.6280000   13.9370000  
O 14.3730000   22.2420000   15.8580000  
C 14.8770000   21.6820000   14.7050000  
O 14.8330000   22.2520000   13.6570000  
O 18.3090000   15.2580000   13.9490000  
O 17.8490000   15.2980000   16.8110000  
H 15.0940000   19.9510000   17.0590000  
H 14.3370000   21.5490000   16.5390000  
H 16.1530000   19.9320000   12.9780000  
H 18.2630000   15.3520000   13.0250000  
H 18.3410000   14.7590000   16.2610000  
H 17.4190000   17.5340000   12.6960000  
