76
100 
C 10.0640000   14.1770000   25.5060000  
C  8.9630000   15.2220000   25.3040000  
C  9.3000000   16.4100000   24.7320000  
C 10.6060000   16.6650000   24.2430000  
C 11.6620000   15.7520000   24.2600000  
C 11.4110000   14.4130000   24.8000000  
C  8.4610000   17.5030000   24.4010000  
C  9.2030000   18.4510000   23.6820000  
N 10.4770000   17.9060000   23.6250000  
O  7.4590000   19.9970000   23.1330000  
C  8.8230000   19.7190000   23.0440000  
O  9.5310000   20.4940000   22.4230000  
O 12.1890000   13.4800000   24.7860000  
O  9.8920000   13.2260000   26.2470000  
H  8.0520000   15.0560000   25.7750000  
H  7.4160000   17.6030000   24.7400000  
H  7.0550000   19.5010000   23.8810000  
H 11.2630000   18.3740000   23.2420000  
C 12.7690000   16.2440000   23.4510000  
C 13.9580000   16.7250000   23.9890000  
C 15.0390000   17.1490000   23.2160000  
C 15.0130000   17.1030000   21.8270000  
C 13.8490000   16.5510000   21.2820000  
C 12.7850000   16.1540000   22.0340000  
C 14.2890000   16.9730000   25.3340000  
C 15.4950000   17.7130000   25.3550000  
N 15.9040000   17.8080000   24.0240000  
O 15.8290000   17.9540000   27.7030000  
C 16.3140000   18.2310000   26.5040000  
O 17.3530000   18.8390000   26.3610000  
O 13.7550000   16.5040000   19.9360000  
O 11.7310000   15.5520000   21.4250000  
H 13.8330000   16.4390000   26.1520000  
H 15.1420000   17.2820000   27.5530000  
H 16.8650000   18.0970000   23.6680000  
H 14.5110000   16.9290000   19.5490000  
H 11.9360000   15.4040000   20.4510000  
C 16.2130000   17.6020000   21.0740000  
C 17.5200000   17.1450000   21.4360000  
C 18.6530000   17.7810000   20.9460000  
C 18.6760000   18.8220000   20.0180000  
C 17.4100000   19.2210000   19.6280000  
C 16.2220000   18.7290000   20.2290000  
C 17.9540000   16.1700000   22.4050000  
C 19.3740000   16.2780000   22.5350000  
N 19.7750000   17.2080000   21.5530000  
O 19.8090000   14.5030000   24.0160000  
C 20.2880000   15.5500000   23.3670000  
O 21.4750000   15.7920000   23.3790000  
O 17.2410000   20.1890000   18.6630000  
O 15.0660000   19.3670000   19.9270000  
H 17.3100000   15.6020000   23.0610000  
H 18.8630000   14.6660000   23.9850000  
H 20.6900000   17.5620000   21.2790000  
H 18.0440000   20.6800000   18.4970000  
H 15.3090000   20.1320000   19.4130000  
C 19.9130000   19.2670000   19.3720000  
C 20.1380000   19.0950000   17.9710000  
C 21.2340000   19.6180000   17.3330000  
C 22.2020000   20.2950000   18.0620000  
C 22.0260000   20.4500000   19.4570000  
C 20.9040000   19.8390000   20.1330000  
C 19.2710000   18.5210000   16.9640000  
C 19.9330000   18.7290000   15.7720000  
N 21.1290000   19.3110000   15.9830000  
O 18.1610000   17.7770000   14.4210000  
C 19.4510000   18.1220000   14.5150000  
O 20.1350000   18.0550000   13.5410000  
O 23.0310000   20.9660000   20.2040000  
O 20.7440000   19.9530000   21.5240000  
H 18.2710000   18.0580000   17.1260000  
H 17.8750000   17.9660000   15.3200000  
H 21.6910000   19.6210000   15.1610000  
H 23.6970000   21.2060000   19.4670000  
H 19.9310000   20.4220000   21.6990000  
H 23.0500000   20.6340000   17.5710000  
