76
100 
C 16.2110000   10.0930000   23.6080000  
C 15.1070000    9.6180000   22.7430000  
C 14.4340000   10.5220000   21.9950000  
C 14.7610000   11.8810000   21.9840000  
C 15.7230000   12.4420000   22.7360000  
C 16.5380000   11.6380000   23.7210000  
C 13.3250000   10.5040000   21.0570000  
C 12.9880000   11.7320000   20.5770000  
N 13.9550000   12.5720000   21.0500000  
O 11.0800000   11.1240000   19.2500000  
C 11.9850000   12.0850000   19.5880000  
O 12.0180000   13.2140000   19.0910000  
O 17.4370000   12.0980000   24.4250000  
O 16.8710000    9.2540000   24.2490000  
H 15.0030000    8.5540000   22.7380000  
H 12.6920000    9.6560000   21.0560000  
H 11.1240000   10.5370000   20.0270000  
H 14.0720000   13.5600000   20.8530000  
C 16.0330000   13.8320000   22.4640000  
C 15.2090000   14.8820000   22.9650000  
C 15.3810000   16.1490000   22.5600000  
C 16.3340000   16.6230000   21.6830000  
C 17.1650000   15.5990000   21.1520000  
C 17.0760000   14.2210000   21.5770000  
C 14.0390000   14.8950000   23.7890000  
C 13.5820000   16.1570000   23.8750000  
N 14.4230000   16.9830000   23.1330000  
O 11.6090000   15.5040000   25.0490000  
C 12.4350000   16.5220000   24.6300000  
O 12.0900000   17.6980000   24.8040000  
O 18.2630000   15.8950000   20.3440000  
O 17.8290000   13.2970000   20.9230000  
H 13.4700000   14.0180000   23.9790000  
H 12.2670000   14.7340000   25.0360000  
H 14.3010000   17.9970000   22.9020000  
H 18.3860000   16.8600000   20.4290000  
H 18.5410000   13.7810000   20.4490000  
C 16.5330000   18.1390000   21.4500000  
C 16.7390000   18.9760000   22.5350000  
C 16.6950000   20.3340000   22.4030000  
C 16.5060000   20.9820000   21.1560000  
C 16.2820000   20.1710000   20.0050000  
C 16.3750000   18.7180000   20.1350000  
C 16.9550000   18.6940000   23.9660000  
C 16.9070000   19.9490000   24.5900000  
N 16.9890000   20.9710000   23.6320000  
O 17.0230000   19.1330000   26.8550000  
C 16.9820000   20.2020000   26.0800000  
O 16.9970000   21.2930000   26.6380000  
O 16.0200000   20.7080000   18.7810000  
O 16.2080000   17.8760000   19.0270000  
H 16.8740000   17.7320000   24.5280000  
H 16.6410000   18.3340000   26.3440000  
H 17.1150000   21.9640000   23.7350000  
H 16.2400000   21.6770000   18.8400000  
H 15.9350000   17.0910000   19.4490000  
C 16.5880000   22.4700000   21.0030000  
C 17.3500000   23.2140000   20.0170000  
C 17.2080000   24.5280000   19.7970000  
C 16.2450000   25.3300000   20.4410000  
C 15.5700000   24.6860000   21.5070000  
C 15.6760000   23.3030000   21.6990000  
C 18.2810000   22.7030000   19.0590000  
C 18.3810000   23.6830000   18.0990000  
N 17.7810000   24.8830000   18.5700000  
O 19.5830000   22.4240000   16.5330000  
C 19.1660000   23.6410000   16.8340000  
O 19.3630000   24.6160000   16.0950000  
O 14.7280000   25.3730000   22.3100000  
O 14.8380000   22.7720000   22.6390000  
H 18.6490000   21.6670000   18.9830000  
H 19.1540000   21.8400000   17.1720000  
H 17.7810000   25.8060000   18.1160000  
H 14.5390000   26.1790000   21.8140000  
H 14.4090000   23.5520000   23.1880000  
H 16.0430000   26.3750000   20.2900000  
