76
100 
C 18.8010000   11.9950000   24.8380000  
C 19.1840000   10.9400000   23.8840000  
C 18.8850000   11.1000000   22.5920000  
C 18.3400000   12.3000000   22.0480000  
C 17.8920000   13.3140000   22.8680000  
C 18.0370000   13.2530000   24.3270000  
C 19.2330000   10.2720000   21.4870000  
C 19.0000000   11.0010000   20.3000000  
N 18.5610000   12.2220000   20.7010000  
O 19.7830000    9.4350000   18.6390000  
C 19.1790000   10.6210000   18.8490000  
O 18.9360000   11.4260000   17.9490000  
O 17.5930000   14.0850000   25.0560000  
O 19.1170000   11.9310000   26.0430000  
H 19.6960000    9.9970000   24.2520000  
H 19.6610000    9.2510000   21.5610000  
H 19.8250000    8.9990000   19.4830000  
H 18.3540000   12.9920000   20.0670000  
C 17.3450000   14.4520000   22.1320000  
C 15.9540000   14.6510000   21.9400000  
C 15.5430000   15.8480000   21.5070000  
C 16.3410000   16.9230000   21.1210000  
C 17.7650000   16.7010000   21.1670000  
C 18.2360000   15.4490000   21.6840000  
C 14.8120000   13.9330000   22.4560000  
C 13.7660000   14.8530000   22.3780000  
N 14.1680000   15.9000000   21.5560000  
O 12.2010000   13.6190000   23.4830000  
C 12.4150000   14.8190000   22.9990000  
O 11.5990000   15.7010000   22.9860000  
O 18.7240000   17.6580000   20.7150000  
O 19.5890000   15.2900000   21.7170000  
H 14.7080000   12.8970000   22.7330000  
H 13.0710000   13.1990000   23.5700000  
H 13.5990000   16.6240000   21.1530000  
H 18.2820000   18.3920000   20.2280000  
H 19.8590000   16.0390000   21.1970000  
C 15.6750000   18.1590000   20.7400000  
C 14.9080000   18.7720000   21.7170000  
C 14.3670000   19.9730000   21.4290000  
C 14.4190000   20.6170000   20.1920000  
C 15.1470000   19.9880000   19.1620000  
C 15.7540000   18.7120000   19.4240000  
C 14.6320000   18.5300000   23.1440000  
C 14.0210000   19.6860000   23.6700000  
N 13.7820000   20.5460000   22.5710000  
O 13.7600000   18.6600000   25.7310000  
C 13.5320000   19.7880000   25.0380000  
O 13.1790000   20.8120000   25.5870000  
O 15.2770000   20.5920000   17.9450000  
O 16.3430000   18.0640000   18.3750000  
H 15.0140000   17.6530000   23.6880000  
H 14.0180000   18.1240000   24.9690000  
H 13.4600000   21.4850000   22.6090000  
H 14.7380000   21.3360000   17.9160000  
H 16.4760000   18.7900000   17.6820000  
C 13.9170000   22.0340000   20.2380000  
C 14.6260000   23.1590000   20.7330000  
C 14.0370000   24.3450000   20.9790000  
C 12.7100000   24.6190000   20.5440000  
C 11.9770000   23.5840000   19.9120000  
C 12.6130000   22.3330000   19.7640000  
C 15.9760000   23.3090000   21.3380000  
C 16.0330000   24.6420000   21.8650000  
N 14.8290000   25.2800000   21.6280000  
O 18.1240000   24.3770000   22.9620000  
C 17.0870000   25.2240000   22.7330000  
O 17.1210000   26.3690000   23.1640000  
O 10.6940000   23.7870000   19.4360000  
O 11.9130000   21.3000000   19.1470000  
H 16.8120000   22.5780000   21.4620000  
H 17.7820000   23.4780000   22.6430000  
H 14.5660000   26.1850000   21.8780000  
H 10.6570000   24.6550000   18.9580000  
H 11.0130000   21.5120000   18.9020000  
H 12.3250000   25.6120000   20.7040000  
