76
100 
C  8.8680000   17.1910000   25.0440000  
C  8.6760000   15.6860000   25.2570000  
C  9.7610000   14.8700000   25.1060000  
C 11.0410000   15.2790000   24.7000000  
C 11.3520000   16.5560000   24.4390000  
C 10.3440000   17.6810000   24.6530000  
C  9.8560000   13.4750000   25.1850000  
C 11.0920000   13.0300000   24.7710000  
N 11.8500000   14.1870000   24.4820000  
O 10.5870000   10.6480000   24.7950000  
C 11.5520000   11.6310000   24.6390000  
O 12.6870000   11.2510000   24.3060000  
O 10.5010000   18.8950000   24.4330000  
O  8.0080000   18.0310000   25.1890000  
H  7.7400000   15.3130000   25.6090000  
H  9.1600000   12.8010000   25.5280000  
H  9.7250000   11.1050000   24.7610000  
H 12.8270000   14.2130000   24.1580000  
C 12.7120000   16.7820000   23.8630000  
C 12.8670000   16.9830000   22.4950000  
C 14.0660000   17.3050000   21.9840000  
C 15.3070000   17.2440000   22.5490000  
C 15.1640000   17.0850000   23.9840000  
C 13.8750000   16.8940000   24.6540000  
C 11.8800000   16.8250000   21.4650000  
C 12.6460000   16.9190000   20.2920000  
N 13.9310000   17.2880000   20.6190000  
O 10.7770000   16.5660000   18.9000000  
C 12.0700000   16.9400000   18.9570000  
O 12.6910000   17.2190000   17.9550000  
O 16.2760000   17.1560000   24.7660000  
O 13.7810000   16.8330000   26.0090000  
H 10.8870000   16.4960000   21.5940000  
H 10.5280000   16.5670000   19.8310000  
H 14.6510000   17.5060000   19.9440000  
H 17.0180000   17.2740000   24.0850000  
H 14.6680000   16.6970000   26.3560000  
C 16.6380000   17.4810000   21.8630000  
C 17.1330000   18.7430000   21.6090000  
C 18.3450000   18.9950000   20.9650000  
C 19.0970000   18.0250000   20.3300000  
C 18.6450000   16.7480000   20.6710000  
C 17.4480000   16.4460000   21.3800000  
C 16.5700000   20.0200000   21.8440000  
C 17.3390000   21.0200000   21.2080000  
N 18.4560000   20.3190000   20.6970000  
O 15.8240000   22.9150000   21.4340000  
C 16.9760000   22.4320000   20.9210000  
O 17.6170000   23.1640000   20.1730000  
O 19.4540000   15.7910000   20.1790000  
O 17.2010000   15.0690000   21.5930000  
H 15.5540000   20.2500000   22.2060000  
H 15.3670000   22.1270000   21.7980000  
H 19.2470000   20.7560000   20.2630000  
H 20.1030000   16.2640000   19.5750000  
H 17.8820000   14.7110000   21.0160000  
C 20.0940000   18.3580000   19.2770000  
C 21.1850000   19.2710000   19.5490000  
C 22.0690000   19.6820000   18.5030000  
C 22.0310000   19.2090000   17.2220000  
C 21.0110000   18.2870000   16.9120000  
C 20.0580000   17.9200000   17.8950000  
C 21.7400000   19.9100000   20.7060000  
C 22.8440000   20.7060000   20.3430000  
N 23.0900000   20.5140000   19.0000000  
O 22.9620000   21.8130000   22.4280000  
C 23.5580000   21.6540000   21.2340000  
O 24.5080000   22.3150000   20.9630000  
O 20.8180000   17.8000000   15.6700000  
O 18.9590000   17.1880000   17.5130000  
H 21.2920000   20.0060000   21.7100000  
H 22.1030000   21.3490000   22.2990000  
H 23.9200000   20.8250000   18.5710000  
H 21.5970000   18.2160000   15.1140000  
H 18.6840000   17.4900000   16.5710000  
H 22.8690000   19.4500000   16.6660000  
