76
100 
C 10.3160000   17.2720000   27.1570000  
C 10.2520000   18.6810000   27.4520000  
C 11.0940000   19.5610000   26.9050000  
C 11.9760000   19.2600000   25.7910000  
C 12.2080000   17.9640000   25.4550000  
C 11.3620000   16.9330000   26.0360000  
C 11.3620000   20.8840000   27.2000000  
C 12.3110000   21.4390000   26.2970000  
N 12.7580000   20.3620000   25.5000000  
O 12.3310000   23.6250000   27.1570000  
C 12.7530000   22.8070000   26.2150000  
O 13.5670000   23.2380000   25.3700000  
O 11.4280000   15.7450000   25.6870000  
O  9.5020000   16.4680000   27.6530000  
H  9.6770000   18.9130000   28.3680000  
H 10.8410000   21.4900000   27.9560000  
H 11.6120000   23.2050000   27.6760000  
H 13.5710000   20.3800000   24.8910000  
C 13.1640000   17.7230000   24.4100000  
C 14.3480000   17.0230000   24.6380000  
C 15.3150000   16.8040000   23.6850000  
C 15.2160000   17.2080000   22.3570000  
C 14.0450000   17.9150000   22.0860000  
C 13.0980000   18.1670000   23.0750000  
C 14.8140000   16.2970000   25.8110000  
C 16.0440000   15.7440000   25.4550000  
N 16.4180000   16.1510000   24.1380000  
O 16.0890000   14.3180000   27.4160000  
C 16.6820000   14.6900000   26.3000000  
O 17.7380000   14.1790000   26.0300000  
O 13.8310000   18.4450000   20.8470000  
O 11.9640000   18.8860000   22.7480000  
H 14.2600000   16.1600000   26.7410000  
H 15.1670000   14.7240000   27.3820000  
H 17.2960000   15.9200000   23.6070000  
H 14.7350000   18.5390000   20.4230000  
H 11.8860000   18.9640000   21.7870000  
C 16.2910000   17.0300000   21.3470000  
C 16.1730000   16.2110000   20.2410000  
C 17.1590000   16.1160000   19.3180000  
C 18.4110000   16.7970000   19.2870000  
C 18.5340000   17.7040000   20.4390000  
C 17.4940000   17.7570000   21.4160000  
C 15.0480000   15.5170000   19.6720000  
C 15.4940000   15.1040000   18.4700000  
N 16.8050000   15.3960000   18.2980000  
O 13.4950000   14.0530000   17.9560000  
C 14.7600000   14.2460000   17.5390000  
O 15.1100000   13.6750000   16.5020000  
O 19.6400000   18.4580000   20.5360000  
O 17.5740000   18.5910000   22.4640000  
H 14.0810000   15.2970000   20.1430000  
H 13.4350000   14.7540000   18.6090000  
H 17.3280000   15.2400000   17.4510000  
H 20.2400000   18.1370000   19.8720000  
H 18.0990000   19.3750000   22.2340000  
C 19.3620000   16.7570000   18.1690000  
C 19.7390000   17.9730000   17.4300000  
C 20.7040000   17.9310000   16.4550000  
C 21.3870000   16.7890000   16.1200000  
C 21.0280000   15.5370000   16.6930000  
C 20.0260000   15.5610000   17.7110000  
C 19.2180000   19.3360000   17.5430000  
C 19.8200000   20.0280000   16.4780000  
N 20.7100000   19.2090000   15.8090000  
O 18.8340000   22.0900000   16.9130000  
C 19.6030000   21.4440000   16.0800000  
O 20.0650000   21.9970000   15.0780000  
O 21.8460000   14.4140000   16.4960000  
O 19.6900000   14.3300000   18.2030000  
H 18.4900000   19.7420000   18.3090000  
H 18.6700000   21.5290000   17.6920000  
H 21.2930000   19.4810000   14.9750000  
H 22.5820000   14.7600000   15.9890000  
H 20.1190000   13.6300000   17.7380000  
H 22.0870000   16.9190000   15.3100000  
