76
100 
C 20.3380000   19.1910000   27.7730000  
C 19.6670000   18.4640000   28.8610000  
C 18.4970000   17.7880000   28.6280000  
C 17.8900000   17.8040000   27.3810000  
C 18.3610000   18.3860000   26.2660000  
C 19.6350000   19.2210000   26.3370000  
C 17.7320000   16.8030000   29.4390000  
C 16.7340000   16.2460000   28.6260000  
N 16.9580000   16.8400000   27.3650000  
O 16.0350000   14.5730000   30.0830000  
C 15.7670000   15.1520000   28.8720000  
O 14.9940000   14.6630000   28.0240000  
O 20.0630000   19.8470000   25.3990000  
O 21.3720000   19.7130000   27.9460000  
H 20.1630000   18.4900000   29.8560000  
H 18.0410000   16.4260000   30.4010000  
H 16.7290000   15.2210000   30.2750000  
H 16.3420000   16.6220000   26.5710000  
C 17.5960000   18.2460000   25.0270000  
C 16.3780000   18.9240000   24.7430000  
C 15.6840000   18.7370000   23.6060000  
C 16.0600000   17.9710000   22.4670000  
C 17.3320000   17.4240000   22.6790000  
C 18.1150000   17.5490000   23.8610000  
C 15.5130000   19.6650000   25.6380000  
C 14.2640000   19.7180000   24.9720000  
N 14.3600000   19.2370000   23.6600000  
O 13.1530000   21.1890000   26.5610000  
C 13.1160000   20.5700000   25.3610000  
O 12.2130000   20.8670000   24.5980000  
O 18.0230000   17.0370000   21.5580000  
O 19.3830000   17.0820000   23.9540000  
H 15.7290000   20.0620000   26.6390000  
H 13.9900000   20.8480000   26.9070000  
H 13.6450000   19.0870000   22.9640000  
H 17.4890000   17.0690000   20.7460000  
H 19.7840000   17.2250000   23.0920000  
C 15.3580000   17.7930000   21.2130000  
C 15.7690000   18.4220000   20.0350000  
C 15.0650000   18.2190000   18.8510000  
C 13.9770000   17.3040000   18.6620000  
C 13.5970000   16.6740000   19.8370000  
C 14.3090000   16.8290000   21.0160000  
C 16.9830000   19.1800000   19.7030000  
C 16.8860000   19.3870000   18.2790000  
N 15.7720000   18.6820000   17.7710000  
O 19.0070000   20.5420000   18.0630000  
C 17.9200000   20.0550000   17.4360000  
O 17.8010000   20.1000000   16.2420000  
O 12.5050000   15.9370000   19.9200000  
O 13.9080000   16.0610000   22.0630000  
H 17.6010000   19.7150000   20.4570000  
H 18.9020000   20.2350000   19.0170000  
H 15.4260000   18.5320000   16.8300000  
H 12.3170000   15.6280000   18.9930000  
H 12.9810000   15.6890000   21.9230000  
C 13.3080000   16.9020000   17.3940000  
C 14.0200000   16.2840000   16.2960000  
C 13.3520000   15.8370000   15.2020000  
C 11.9930000   16.0290000   15.0080000  
C 11.2600000   16.6950000   15.9950000  
C 11.9320000   17.1160000   17.1760000  
C 15.4130000   16.0030000   16.1610000  
C 15.4910000   15.2190000   15.0000000  
N 14.2260000   15.1530000   14.4190000  
O 17.8790000   15.3490000   14.9450000  
C 16.7680000   14.9110000   14.3300000  
O 16.8780000   14.3790000   13.2390000  
O  9.9990000   17.0870000   15.7720000  
O 11.1620000   17.8470000   18.0840000  
H 16.1640000   16.2370000   16.7970000  
H 17.6640000   15.8030000   15.7790000  
H 13.9890000   14.7140000   13.5650000  
H  9.6970000   16.5200000   14.9770000  
H 10.3030000   18.0080000   17.6950000  
H 11.4980000   15.7340000   14.0630000  
