76
100 
C  9.4640000   16.5120000   25.9830000  
C  9.5580000   17.7200000   26.7560000  
C 10.5180000   18.6920000   26.5510000  
C 11.5310000   18.4900000   25.6650000  
C 11.8050000   17.2700000   25.0200000  
C 10.7040000   16.1820000   25.0360000  
C 10.7080000   20.0480000   27.1370000  
C 11.8870000   20.5550000   26.5490000  
N 12.3760000   19.5850000   25.7080000  
O 11.3290000   22.8250000   26.9580000  
C 12.2860000   21.9840000   26.5880000  
O 13.3560000   22.3670000   26.1860000  
O 10.7620000   15.1360000   24.4060000  
O  8.5150000   15.7450000   26.0320000  
H  8.6460000   17.9150000   27.3510000  
H 10.0170000   20.4300000   27.8960000  
H 10.5530000   22.3070000   27.0170000  
H 13.1800000   19.6710000   25.1100000  
C 12.9080000   17.3410000   24.0820000  
C 14.2270000   17.3270000   24.4690000  
C 15.1690000   17.4590000   23.5460000  
C 15.0510000   17.4780000   22.1580000  
C 13.7140000   17.4410000   21.7520000  
C 12.7090000   17.2910000   22.7080000  
C 14.8980000   17.0670000   25.7410000  
C 16.2690000   17.1540000   25.4370000  
N 16.3990000   17.2710000   24.0480000  
O 16.9890000   16.7290000   27.7200000  
C 17.3670000   17.0090000   26.4540000  
O 18.5250000   17.0970000   26.1780000  
O 13.3770000   17.4700000   20.4220000  
O 11.4880000   17.1330000   22.2120000  
H 14.4810000   16.7680000   26.7180000  
H 16.0170000   16.5100000   27.5850000  
H 17.2840000   17.3630000   23.5210000  
H 14.2160000   17.5320000   19.9250000  
H 11.4520000   17.3460000   21.2960000  
C 16.1770000   17.5150000   21.2470000  
C 16.3790000   16.4280000   20.3570000  
C 17.4610000   16.3920000   19.4760000  
C 18.5040000   17.2760000   19.4610000  
C 18.3970000   18.2790000   20.4000000  
C 17.2790000   18.4610000   21.2570000  
C 15.6850000   15.1390000   20.2150000  
C 16.2910000   14.5570000   19.1130000  
N 17.3640000   15.3130000   18.6470000  
O 14.6110000   12.8190000   19.0520000  
C 15.7460000   13.3170000   18.5100000  
O 16.2210000   12.7790000   17.5250000  
O 19.4260000   19.2560000   20.5150000  
O 17.4110000   19.5290000   22.0440000  
H 14.7480000   14.8070000   20.7180000  
H 14.6350000   13.2570000   19.8880000  
H 17.9770000   15.0030000   17.9470000  
H 20.1340000   19.0990000   19.8940000  
H 18.3140000   19.8220000   21.8840000  
C 19.6260000   17.1750000   18.4720000  
C 19.8880000   18.1710000   17.4810000  
C 20.9000000   18.1230000   16.6000000  
C 21.7100000   17.0390000   16.4980000  
C 21.5210000   15.9790000   17.4630000  
C 20.5000000   16.0650000   18.4330000  
C 19.2100000   19.3930000   17.2740000  
C 19.8750000   20.1120000   16.3180000  
N 20.9580000   19.3160000   15.8540000  
O 18.5700000   22.0350000   16.4380000  
C 19.4370000   21.3640000   15.7480000  
O 19.9320000   21.8710000   14.7380000  
O 22.3680000   14.8940000   17.4200000  
O 20.3500000   14.9410000   19.2580000  
H 18.2160000   19.5890000   17.7630000  
H 18.4620000   21.5870000   17.3040000  
H 21.5700000   19.5770000   15.0550000  
H 23.2050000   15.2550000   17.1100000  
H 20.8030000   14.2180000   18.8510000  
H 22.5090000   17.0010000   15.7340000  
