76
100 
C 10.1450000   17.0690000   26.7380000  
C  9.7850000   15.6520000   26.5800000  
C 10.5340000   14.9320000   25.6760000  
C 11.5900000   15.4270000   24.9400000  
C 12.0680000   16.7190000   25.0690000  
C 11.5050000   17.6110000   26.1050000  
C 10.3330000   13.6170000   25.1890000  
C 11.3970000   13.3060000   24.3160000  
N 12.0000000   14.4780000   24.0300000  
O 10.9520000   11.0220000   24.4190000  
C 11.6890000   11.9240000   23.8040000  
O 12.6140000   11.6870000   23.0940000  
O 11.9920000   18.6870000   26.4050000  
O  9.4230000   17.9070000   27.2330000  
H  8.8300000   15.3580000   26.9670000  
H  9.6380000   12.9670000   25.6140000  
H 10.3720000   11.5350000   25.0230000  
H 12.7510000   14.5200000   23.3950000  
C 13.2490000   17.0280000   24.3010000  
C 13.0730000   17.6090000   23.0490000  
C 14.1250000   17.7300000   22.1810000  
C 15.4410000   17.4900000   22.5390000  
C 15.6550000   16.9940000   23.8490000  
C 14.5420000   16.8070000   24.7290000  
C 11.8960000   17.8610000   22.2660000  
C 12.3720000   18.3140000   21.0160000  
N 13.7520000   18.1880000   20.9380000  
O 10.2220000   18.9790000   20.0620000  
C 11.5620000   18.8940000   19.9220000  
O 12.1610000   19.3570000   18.9620000  
O 16.9450000   16.8630000   24.2910000  
O 14.7320000   16.2950000   25.9940000  
H 10.8300000   17.9520000   22.4720000  
H 10.0160000   18.5870000   20.9610000  
H 14.3760000   18.3810000   20.1690000  
H 17.5130000   17.0950000   23.5000000  
H 15.6600000   16.4810000   26.1570000  
C 16.5360000   17.8350000   21.6050000  
C 16.7140000   19.0640000   20.9890000  
C 17.5910000   19.1730000   19.9390000  
C 18.4480000   18.2600000   19.3960000  
C 18.3160000   17.0440000   20.0410000  
C 17.3000000   16.8120000   21.0850000  
C 16.0170000   20.3420000   21.0610000  
C 16.5520000   21.1180000   20.0560000  
N 17.5310000   20.4420000   19.3860000  
O 15.0450000   22.9700000   20.2250000  
C 16.1010000   22.4440000   19.5650000  
O 16.6880000   23.0890000   18.6930000  
O 18.9940000   15.9730000   19.5320000  
O 17.1290000   15.5490000   21.5000000  
H 15.1160000   20.6630000   21.6380000  
H 14.8780000   22.3500000   20.9490000  
H 18.2050000   20.7760000   18.7420000  
H 19.5550000   16.2820000   18.8170000  
H 17.5010000   15.0300000   20.7980000  
C 19.6150000   18.5560000   18.5320000  
C 20.8570000   18.5900000   19.2280000  
C 22.0140000   18.7160000   18.5800000  
C 22.0590000   18.9230000   17.1830000  
C 20.8330000   18.9190000   16.4800000  
C 19.5720000   18.8430000   17.1380000  
C 21.1790000   18.4640000   20.6190000  
C 22.5330000   18.2960000   20.7400000  
N 23.0620000   18.4800000   19.4510000  
O 22.5150000   17.9690000   23.0990000  
C 23.2770000   18.1150000   22.0100000  
O 24.4820000   17.9540000   22.1790000  
O 20.8730000   19.1790000   15.1590000  
O 18.3860000   18.8590000   16.4100000  
H 20.4560000   18.3980000   21.4210000  
H 21.6130000   18.1990000   22.8210000  
H 24.0550000   18.6340000   19.2810000  
H 21.7740000   19.2550000   14.8630000  
H 18.5630000   18.4410000   15.5000000  
H 23.0420000   19.0430000   16.7170000  
