76
101 
C 17.2810000   18.7440000   29.2820000  
C 15.9410000   18.1270000   29.4640000  
C 15.2450000   17.5720000   28.4420000  
C 15.8030000   17.5380000   27.1590000  
C 17.0140000   18.1300000   26.8150000  
C 17.8670000   18.8120000   27.8560000  
C 13.9050000   17.0020000   28.4220000  
C 13.6630000   16.6670000   27.0940000  
N 14.8300000   16.9970000   26.3550000  
O 11.5290000   15.8030000   27.5090000  
C 12.4450000   16.1340000   26.5770000  
O 12.2660000   16.0540000   25.4050000  
O 18.9570000   19.3110000   27.6170000  
O 17.8490000   19.2690000   30.1570000  
H 15.4820000   18.2550000   30.4120000  
H 13.1960000   17.1110000   29.2230000  
H 11.9010000   16.0890000   28.3350000  
H 14.8870000   16.8510000   25.3630000  
C 17.3260000   18.2380000   25.3770000  
C 17.3780000   19.4180000   24.6510000  
C 17.4660000   19.4000000   23.2600000  
C 17.6450000   18.2190000   22.5000000  
C 17.6540000   17.0250000   23.2660000  
C 17.5020000   17.0530000   24.6550000  
C 17.2710000   20.7980000   24.9990000  
C 17.5390000   21.5590000   23.8760000  
N 17.6130000   20.6820000   22.7380000  
O 17.7610000   23.6860000   24.9770000  
C 17.7360000   23.0550000   23.7920000  
O 17.9600000   23.6310000   22.7520000  
O 17.7850000   15.7880000   22.5230000  
O 17.5520000   15.8670000   25.3240000  
H 17.3950000   21.1170000   26.0250000  
H 17.6960000   23.0440000   25.7060000  
H 17.7640000   20.8360000   21.7240000  
H 17.7530000   15.9650000   21.5570000  
H 16.9320000   16.0550000   26.0140000  
C 18.0120000   18.2370000   21.0260000  
C 19.3040000   17.8600000   20.5880000  
C 19.7060000   17.9250000   19.2420000  
C 18.7960000   18.2360000   18.2230000  
C 17.4590000   18.4680000   18.5640000  
C 17.0640000   18.5640000   19.9330000  
C 20.5470000   17.6310000   21.3100000  
C 21.6010000   17.5500000   20.3850000  
N 21.0540000   17.8490000   19.1280000  
O 23.2920000   17.2960000   22.0520000  
C 23.0240000   17.2680000   20.7470000  
O 23.9870000   17.1430000   19.9720000  
O 16.6370000   18.8700000   17.6410000  
O 15.8340000   19.0890000   20.1920000  
H 20.6200000   17.2620000   22.3010000  
H 22.4050000   17.4170000   22.3630000  
H 21.4680000   17.7670000   18.2630000  
H 17.1300000   18.8280000   16.8130000  
H 15.5080000   19.2000000   19.3290000  
C 19.2890000   18.3890000   16.8830000  
C 19.1650000   17.2360000   16.0720000  
C 19.6610000   17.2180000   14.8020000  
C 20.2240000   18.2910000   14.1740000  
C 20.2780000   19.4800000   14.9210000  
C 19.8850000   19.5220000   16.2880000  
C 18.6580000   15.9590000   16.3200000  
C 18.8630000   15.1670000   15.1950000  
N 19.3780000   15.9720000   14.2420000  
O 18.0810000   13.2510000   16.2350000  
C 18.4770000   13.7400000   15.0630000  
O 18.6130000   12.9710000   14.1430000  
O 20.7060000   20.6180000   14.3620000  
O 19.8720000   20.7020000   17.0390000  
H 18.2150000   15.6390000   17.2270000  
H 18.1820000   14.0280000   16.7670000  
H 19.5230000   15.8220000   13.2420000  
H 20.9700000   21.2060000   15.0520000  
H 19.3890000   20.4920000   17.8900000  
H 20.5090000   18.3240000   13.0870000  
