76
101 
C 17.3520000   15.1050000   28.7980000  
C 18.0840000   16.1630000   29.5360000  
C 18.6060000   17.2530000   28.9040000  
C 18.4750000   17.4900000   27.5860000  
C 17.7030000   16.7090000   26.7420000  
C 17.1780000   15.4250000   27.2840000  
C 19.4270000   18.2760000   29.4170000  
C 19.7240000   19.1490000   28.3420000  
N 19.1800000   18.5620000   27.1890000  
O 21.0760000   20.6260000   29.6060000  
C 20.4930000   20.4340000   28.4140000  
O 20.6700000   21.1210000   27.4370000  
O 16.7000000   14.5930000   26.5510000  
O 16.9080000   14.1350000   29.3480000  
H 18.0980000   15.9720000   30.6510000  
H 19.6770000   18.5460000   30.4270000  
H 20.9870000   19.9230000   30.2170000  
H 19.0510000   18.9570000   26.2830000  
C 17.7710000   17.1260000   25.2910000  
C 18.7270000   16.5940000   24.4590000  
C 18.6040000   16.8360000   23.1330000  
C 17.7360000   17.7660000   22.5120000  
C 16.8490000   18.3990000   23.4120000  
C 16.9280000   18.1500000   24.8070000  
C 19.8080000   15.6560000   24.7230000  
C 20.3370000   15.4300000   23.4230000  
N 19.5770000   16.1640000   22.4420000  
O 22.1620000   14.0140000   24.1590000  
C 21.4870000   14.5660000   23.1190000  
O 21.9320000   14.3410000   22.0070000  
O 15.8630000   19.2300000   22.9230000  
O 16.0040000   18.7040000   25.6640000  
H 20.0840000   15.3270000   25.6960000  
H 21.6000000   14.3920000   24.8980000  
H 19.6790000   16.2010000   21.4260000  
H 16.0610000   19.6050000   22.0230000  
H 16.2140000   18.2580000   26.5180000  
C 17.8840000   18.0270000   21.0340000  
C 17.2980000   17.3250000   20.0250000  
C 17.4860000   17.6640000   18.6920000  
C 18.1800000   18.8100000   18.2980000  
C 18.8980000   19.5460000   19.2570000  
C 18.7760000   19.1190000   20.5900000  
C 16.4260000   16.2470000   19.9990000  
C 16.0770000   16.0110000   18.6480000  
N 16.7200000   16.9130000   17.8450000  
O 14.8900000   13.9710000   19.1270000  
C 15.2740000   14.8610000   18.1680000  
O 15.0140000   14.7550000   17.0130000  
O 19.6340000   20.6300000   19.0190000  
O 19.6490000   19.6860000   21.5220000  
H 16.1930000   15.6250000   20.8860000  
H 15.2400000   14.4040000   19.9450000  
H 16.6320000   17.0530000   16.8240000  
H 19.7000000   20.7340000   18.0480000  
H 20.0020000   20.5090000   21.1890000  
C 18.2400000   19.3370000   16.8910000  
C 17.4080000   20.3640000   16.5040000  
C 17.2120000   20.6450000   15.1490000  
C 17.9170000   20.0330000   14.1240000  
C 18.7810000   19.0290000   14.5090000  
C 18.9370000   18.6550000   15.8410000  
C 16.4990000   21.2170000   17.2360000  
C 15.8080000   21.9480000   16.3370000  
N 16.3410000   21.6790000   15.0230000  
O 14.5780000   23.3180000   17.7730000  
C 14.8490000   23.0570000   16.5100000  
O 14.3270000   23.6060000   15.5590000  
O 19.5380000   18.4570000   13.5020000  
O 19.7510000   17.5440000   16.0970000  
H 16.5390000   21.3360000   18.3460000  
H 15.1590000   22.6580000   18.1690000  
H 16.1200000   22.3090000   14.2590000  
H 20.1440000   17.7960000   13.8310000  
H 19.8340000   17.5040000   17.0360000  
H 17.8060000   20.2640000   13.0910000  
