76
101 
C 11.2530000   20.4310000   24.5830000  
C 11.0820000   19.5620000   25.7050000  
C 12.1090000   18.7340000   26.0480000  
C 13.2820000   18.6750000   25.3240000  
C 13.6010000   19.3830000   24.1690000  
C 12.6190000   20.3850000   23.7160000  
C 12.3010000   17.6830000   27.0190000  
C 13.5410000   17.0630000   26.8090000  
N 14.1080000   17.7260000   25.7810000  
O 13.2580000   15.4370000   28.4070000  
C 14.1220000   15.9230000   27.4950000  
O 15.1950000   15.3890000   27.1990000  
O 12.7880000   21.1180000   22.7850000  
O 10.3360000   21.2220000   24.3540000  
H 10.1410000   19.7630000   26.1770000  
H 11.5540000   17.4740000   27.8070000  
H 12.6260000   16.1360000   28.3940000  
H 14.9210000   17.3900000   25.2880000  
C 14.8440000   19.0420000   23.4830000  
C 15.0090000   17.7650000   22.8360000  
C 16.1090000   17.5120000   22.1560000  
C 17.2280000   18.3850000   21.9270000  
C 17.0130000   19.6620000   22.6070000  
C 15.8800000   19.9710000   23.3930000  
C 14.1610000   16.6620000   22.6780000  
C 14.8030000   15.7210000   21.8880000  
N 16.1090000   16.2680000   21.5400000  
O 13.2780000   13.9030000   22.0510000  
C 14.4350000   14.3460000   21.5680000  
O 15.0560000   13.6170000   20.8310000  
O 17.9590000   20.5600000   22.4460000  
O 15.6810000   21.2060000   23.9810000  
H 13.1530000   16.5290000   23.0780000  
H 12.7950000   14.7140000   22.2450000  
H 16.8670000   15.7760000   21.1400000  
H 18.6830000   20.0120000   22.0460000  
H 14.6710000   21.2780000   23.9890000  
C 18.5010000   18.0980000   21.1830000  
C 18.8980000   18.7940000   19.9890000  
C 20.0270000   18.4490000   19.3390000  
C 20.8270000   17.3990000   19.7750000  
C 20.5030000   16.7530000   20.9380000  
C 19.3960000   17.1360000   21.6590000  
C 18.2750000   19.6800000   19.0460000  
C 19.1580000   19.8770000   17.9510000  
N 20.3090000   19.1330000   18.2150000  
O 17.8000000   21.5250000   16.8240000  
C 18.8650000   20.7370000   16.7920000  
O 19.6300000   20.7460000   15.7860000  
O 21.3860000   15.8120000   21.3920000  
O 19.1830000   16.3130000   22.7420000  
H 17.2970000   20.1400000   19.1150000  
H 17.3640000   21.4080000   17.6780000  
H 21.1270000   19.1070000   17.5930000  
H 22.0940000   15.7680000   20.7460000  
H 19.9820000   15.7500000   22.8970000  
C 22.1720000   17.1410000   19.1170000  
C 23.3580000   17.7790000   19.5590000  
C 24.5920000   17.6430000   18.9640000  
C 24.6820000   16.7680000   17.9080000  
C 23.5510000   16.1440000   17.3880000  
C 22.2520000   16.4090000   17.9270000  
C 23.6160000   18.5410000   20.7970000  
C 24.9570000   18.8540000   20.8260000  
N 25.5410000   18.3770000   19.6560000  
O 24.9680000   20.1500000   22.7730000  
C 25.7380000   19.5710000   21.9120000  
O 26.9490000   19.5360000   21.9410000  
O 23.6980000   15.3300000   16.3520000  
O 21.1510000   15.9460000   17.3230000  
H 22.8490000   18.8670000   21.4680000  
H 24.0630000   19.8900000   22.5150000  
H 26.3700000   18.8330000   19.2590000  
H 22.7860000   15.0620000   16.2620000  
H 20.2100000   16.0510000   17.7150000  
H 25.6450000   16.5600000   17.4650000  
