76
101 
C 13.7070000   11.8550000   20.3660000  
C 12.4620000   12.5380000   19.9650000  
C 12.3630000   13.8990000   19.8930000  
C 13.3570000   14.7860000   20.3530000  
C 14.5720000   14.3520000   20.8040000  
C 14.8810000   12.8550000   20.8550000  
C 11.3360000   14.7300000   19.3660000  
C 11.7450000   16.0860000   19.4440000  
N 13.0070000   16.0710000   20.0770000  
O  9.8750000   17.0910000   18.4960000  
C 11.0880000   17.2990000   18.9790000  
O 11.5580000   18.4270000   18.9070000  
O 15.9430000   12.3890000   21.1480000  
O 13.8230000   10.6450000   20.2590000  
H 11.7430000   11.8970000   19.5050000  
H 10.4650000   14.3110000   18.8030000  
H  9.7140000   16.1360000   18.6570000  
H 13.4850000   16.9400000   20.2580000  
C 15.6080000   15.3740000   21.0590000  
C 15.5500000   16.1260000   22.2180000  
C 16.5510000   16.9060000   22.6510000  
C 17.6930000   17.2330000   21.8490000  
C 17.7960000   16.4160000   20.6370000  
C 16.8120000   15.4810000   20.2870000  
C 14.4910000   16.2960000   23.1520000  
C 14.9130000   17.3020000   24.0390000  
N 16.2260000   17.6660000   23.7220000  
O 12.8300000   17.4870000   25.1210000  
C 14.0890000   17.9710000   25.0100000  
O 14.4540000   18.9230000   25.7150000  
O 18.8730000   16.6140000   19.7710000  
O 16.9450000   14.6460000   19.2240000  
H 13.4940000   15.9340000   23.1510000  
H 12.8380000   16.7140000   24.5420000  
H 16.8810000   18.2710000   24.1680000  
H 19.5590000   17.1630000   20.1040000  
H 16.4990000   13.8380000   19.4530000  
C 18.5430000   18.3750000   22.0890000  
C 19.8760000   18.0930000   22.4960000  
C 20.6240000   19.1420000   22.7570000  
C 20.3150000   20.5000000   22.6830000  
C 19.0130000   20.7950000   22.2220000  
C 18.1370000   19.7470000   21.9180000  
C 20.6440000   16.9070000   22.7040000  
C 21.9070000   17.3180000   23.0850000  
N 21.8630000   18.7110000   23.1620000  
O 22.8570000   15.0400000   23.3310000  
C 23.0740000   16.3750000   23.3810000  
O 24.1730000   16.8600000   23.7100000  
O 18.5610000   22.0750000   22.1950000  
O 16.9020000   19.9580000   21.4210000  
H 20.3870000   15.8620000   22.5060000  
H 21.9640000   14.9040000   23.0890000  
H 22.5970000   19.2410000   23.5140000  
H 19.2070000   22.6130000   22.7630000  
H 16.7910000   20.9580000   21.5370000  
C 21.3080000   21.5680000   22.9800000  
C 22.3900000   21.7450000   22.0890000  
C 23.2650000   22.7480000   22.1080000  
C 23.3400000   23.5430000   23.2550000  
C 22.3780000   23.4250000   24.2840000  
C 21.3660000   22.4350000   24.1110000  
C 22.5440000   21.1290000   20.7780000  
C 23.6140000   21.8030000   20.0990000  
N 24.0610000   22.8610000   21.0050000  
O 23.3930000   20.4880000   18.1230000  
C 23.9550000   21.5990000   18.6390000  
O 24.6810000   22.4110000   18.0800000  
O 22.3000000   24.2280000   25.4010000  
O 20.3590000   22.3600000   25.0840000  
H 21.9000000   20.4580000   20.2780000  
H 22.7240000   20.1140000   18.6860000  
H 24.5730000   23.7200000   20.7350000  
H 21.4650000   23.8860000   25.8420000  
H 19.7270000   21.6630000   24.7490000  
H 24.0140000   24.3600000   23.2790000  
