76
101 
C 14.1560000   11.4420000   21.4330000  
C 13.5050000   11.6200000   20.1210000  
C 13.6870000   12.7420000   19.4000000  
C 14.4860000   13.7600000   19.8210000  
C 15.2350000   13.7770000   20.9330000  
C 15.1770000   12.5850000   21.7930000  
C 13.2410000   13.0880000   18.0940000  
C 13.6440000   14.4370000   17.8500000  
N 14.3730000   14.8440000   18.9550000  
O 12.6810000   14.6760000   15.6900000  
C 13.2690000   15.3010000   16.7160000  
O 13.5600000   16.5070000   16.7710000  
O 15.9210000   12.4640000   22.7440000  
O 13.9030000   10.4270000   22.1100000  
H 12.8670000   10.8170000   19.8720000  
H 12.6670000   12.4380000   17.3480000  
H 12.3400000   13.8020000   15.9930000  
H 14.8820000   15.7120000   19.1330000  
C 16.1360000   14.8810000   21.2260000  
C 15.8290000   15.8210000   22.2130000  
C 16.6030000   16.9240000   22.3690000  
C 17.7400000   17.1960000   21.6470000  
C 18.1340000   16.2100000   20.6850000  
C 17.3350000   15.0700000   20.5130000  
C 14.7730000   15.8750000   23.1480000  
C 15.0280000   17.0910000   23.9200000  
N 16.0570000   17.7670000   23.3410000  
O 13.2640000   16.7950000   25.4600000  
C 14.2800000   17.5920000   25.0860000  
O 14.6310000   18.5390000   25.7930000  
O 19.0970000   16.3810000   19.8210000  
O 17.6420000   14.1160000   19.5490000  
H 13.9470000   15.2080000   23.2490000  
H 13.1810000   16.1190000   24.7250000  
H 16.3420000   18.7120000   23.6150000  
H 19.6360000   17.2450000   20.0390000  
H 17.2780000   13.3310000   19.9170000  
C 18.4750000   18.4870000   21.7980000  
C 19.0030000   18.8310000   23.0540000  
C 19.6160000   20.0580000   23.1960000  
C 19.7380000   21.0200000   22.1760000  
C 19.1980000   20.6690000   20.8840000  
C 18.4830000   19.4900000   20.7620000  
C 19.0350000   18.2080000   24.3330000  
C 19.6160000   19.1310000   25.2270000  
N 20.0640000   20.2450000   24.4540000  
O 19.8140000   17.6520000   27.1240000  
C 20.0240000   18.9230000   26.6770000  
O 20.3950000   19.7730000   27.4870000  
O 19.3850000   21.4850000   19.7380000  
O 17.9710000   19.2570000   19.5670000  
H 18.6430000   17.1720000   24.6150000  
H 19.6500000   17.1350000   26.2950000  
H 20.5790000   20.9850000   24.8500000  
H 19.9670000   22.1400000   20.0090000  
H 17.8000000   20.0410000   19.0740000  
C 20.5950000   22.2540000   22.4090000  
C 21.8810000   22.2420000   21.8080000  
C 22.7240000   23.3030000   21.9000000  
C 22.3420000   24.5080000   22.4370000  
C 21.0530000   24.6110000   23.0120000  
C 20.1600000   23.5040000   22.9970000  
C 22.5900000   21.3190000   20.9300000  
C 23.7880000   21.7560000   20.6200000  
N 23.9660000   22.9560000   21.3230000  
O 24.3640000   20.0510000   19.1560000  
C 24.7380000   21.2060000   19.6710000  
O 25.8630000   21.6760000   19.5020000  
O 20.6960000   25.7250000   23.6660000  
O 18.8340000   23.5800000   23.3790000  
H 22.0610000   20.4610000   20.5210000  
H 23.5240000   19.8850000   19.5500000  
H 24.8070000   23.5100000   21.4420000  
H 20.0280000   25.5910000   24.2980000  
H 18.5000000   22.7090000   23.0740000  
H 23.0380000   25.3580000   22.3520000  
