76
101 
C 13.4280000   17.4030000   27.2770000  
C 12.0580000   17.3610000   26.7000000  
C 11.8490000   17.2020000   25.4130000  
C 12.8610000   17.1710000   24.4640000  
C 14.1950000   17.3310000   24.8100000  
C 14.5980000   17.2990000   26.2590000  
C 10.6540000   17.0150000   24.7080000  
C 10.9260000   16.9890000   23.3340000  
N 12.3320000   17.1520000   23.2180000  
O  8.6870000   16.7530000   22.6320000  
C  9.9870000   16.7800000   22.1800000  
O 10.2970000   16.6110000   20.9980000  
O 15.7290000   17.3650000   26.6530000  
O 13.6380000   17.4200000   28.4940000  
H 11.2290000   17.4860000   27.4520000  
H  9.6550000   16.9440000   25.1730000  
H  8.8110000   16.9520000   23.6090000  
H 12.8280000   17.2610000   22.3600000  
C 15.2020000   17.4090000   23.7180000  
C 15.4610000   18.7000000   23.1440000  
C 16.3730000   18.8330000   22.1640000  
C 17.1700000   17.7730000   21.6810000  
C 16.9450000   16.5040000   22.3100000  
C 15.9190000   16.2970000   23.2430000  
C 15.0640000   20.0770000   23.4370000  
C 16.0640000   20.8790000   22.9180000  
N 16.6950000   20.1530000   21.9090000  
O 15.5160000   22.6500000   24.2380000  
C 16.2450000   22.3190000   23.1850000  
O 16.9710000   23.1880000   22.6590000  
O 17.7370000   15.4310000   21.8910000  
O 15.7320000   15.1330000   23.8250000  
H 14.1990000   20.4980000   23.9530000  
H 15.2590000   21.7980000   24.6120000  
H 17.4410000   20.3800000   21.2540000  
H 17.9140000   15.6730000   20.9650000  
H 16.4120000   14.5340000   23.4360000  
C 18.3210000   17.9850000   20.8150000  
C 19.3970000   18.7550000   21.3180000  
C 20.4690000   18.8440000   20.5450000  
C 20.5930000   18.4420000   19.1990000  
C 19.5600000   17.6570000   18.6950000  
C 18.3930000   17.4960000   19.4950000  
C 19.7000000   19.4760000   22.5600000  
C 21.0190000   19.8640000   22.4370000  
N 21.4900000   19.5100000   21.2120000  
O 21.4690000   20.6600000   24.7360000  
C 21.9330000   20.5440000   23.4690000  
O 23.0990000   20.9240000   23.2880000  
O 19.6130000   17.1330000   17.5040000  
O 17.2770000   16.8900000   18.9740000  
H 19.0100000   19.5240000   23.3530000  
H 20.6680000   20.1660000   24.5870000  
H 22.3600000   19.7230000   20.7910000  
H 20.5090000   17.2000000   17.0890000  
H 17.4830000   16.7210000   18.0300000  
C 21.8800000   18.5530000   18.5040000  
C 22.8000000   17.5970000   18.7020000  
C 23.8290000   17.4550000   17.8580000  
C 24.1060000   18.4260000   16.8390000  
C 23.1440000   19.3600000   16.5550000  
C 22.0540000   19.5010000   17.4380000  
C 22.8430000   16.4830000   19.5920000  
C 23.9320000   15.6430000   19.2230000  
N 24.5480000   16.3200000   18.1460000  
O 23.5610000   13.8950000   20.8320000  
C 24.2940000   14.3350000   19.7800000  
O 25.2150000   13.7120000   19.3220000  
O 23.3920000   20.1200000   15.4810000  
O 21.0620000   20.4050000   17.1490000  
H 22.2240000   16.3620000   20.5010000  
H 23.0290000   14.6950000   20.9020000  
H 25.4240000   16.0590000   17.8200000  
H 22.5310000   20.4630000   15.2190000  
H 20.3380000   20.3240000   17.7790000  
H 25.0230000   18.3330000   16.1450000  
