76
101 
C 18.5920000   10.7250000   19.6500000  
C 17.6800000    9.9990000   20.5560000  
C 17.0440000   10.7360000   21.5400000  
C 17.2460000   12.0990000   21.6640000  
C 17.8450000   12.9620000   20.7620000  
C 18.5930000   12.3160000   19.6650000  
C 16.1020000   10.2700000   22.5090000  
C 15.7180000   11.4370000   23.2190000  
N 16.4170000   12.4880000   22.6010000  
O 14.2490000   10.3090000   24.6870000  
C 14.7930000   11.5140000   24.3530000  
O 14.5270000   12.4640000   25.0590000  
O 19.2170000   12.9130000   18.8200000  
O 19.3670000   10.0840000   18.8880000  
H 17.6360000    8.9140000   20.3550000  
H 15.7570000    9.2260000   22.6850000  
H 14.5680000    9.8460000   23.8800000  
H 16.3810000   13.4490000   22.8330000  
C 17.7500000   14.3940000   21.0770000  
C 18.8200000   15.1080000   21.7250000  
C 18.7340000   16.4410000   22.1280000  
C 17.6570000   17.2830000   21.7300000  
C 16.6200000   16.6580000   20.9870000  
C 16.6400000   15.2570000   20.7490000  
C 20.0440000   14.6100000   22.3110000  
C 20.6090000   15.6750000   23.0290000  
N 19.8080000   16.8090000   22.8860000  
O 22.3490000   14.4840000   23.9270000  
C 21.8260000   15.6780000   23.8920000  
O 22.2700000   16.5250000   24.6080000  
O 15.6400000   17.3720000   20.4810000  
O 15.5080000   14.6580000   20.2950000  
H 20.3530000   13.5830000   22.2790000  
H 21.8070000   13.8160000   23.4710000  
H 19.9490000   17.7420000   23.3630000  
H 15.7880000   18.2880000   20.5540000  
H 14.8640000   15.4320000   20.1820000  
C 17.6960000   18.7440000   21.9590000  
C 18.7250000   19.5770000   21.3400000  
C 18.7880000   20.9090000   21.5790000  
C 18.0310000   21.5950000   22.4980000  
C 17.1280000   20.8450000   23.2150000  
C 16.9140000   19.4490000   22.8810000  
C 19.7650000   19.2340000   20.4150000  
C 20.3480000   20.4590000   20.0810000  
N 19.7550000   21.5050000   20.8080000  
O 21.8110000   19.4850000   18.4850000  
C 21.3700000   20.6330000   19.0880000  
O 21.8290000   21.7490000   18.7990000  
O 16.3560000   21.4850000   24.0940000  
O 16.0520000   18.7830000   23.7730000  
H 20.0260000   18.2280000   19.9800000  
H 21.0620000   18.8650000   18.5490000  
H 19.8540000   22.4740000   20.6660000  
H 16.3190000   22.4620000   23.8320000  
H 15.6120000   19.4040000   24.3640000  
C 18.0320000   23.0720000   22.7130000  
C 17.3840000   23.9010000   21.7610000  
C 17.5200000   25.2730000   21.8140000  
C 18.1870000   25.8840000   22.8260000  
C 18.6540000   25.0920000   23.9080000  
C 18.6710000   23.6510000   23.8100000  
C 16.7310000   23.5620000   20.5560000  
C 16.2390000   24.7230000   20.0240000  
N 16.8310000   25.7850000   20.7830000  
O 15.2640000   23.7570000   17.9450000  
C 15.4910000   24.8510000   18.7220000  
O 15.0330000   25.8770000   18.2690000  
O 19.1980000   25.7990000   25.0110000  
O 19.1550000   22.9250000   24.8150000  
H 16.6910000   22.6320000   20.0770000  
H 15.8760000   23.1020000   18.2750000  
H 16.5800000   26.7890000   20.6460000  
H 19.7100000   25.1190000   25.4740000  
H 19.0290000   21.9620000   24.5590000  
H 18.1330000   26.9630000   22.9510000  
