76
101 
C 13.8300000   16.8730000   28.3060000  
C 14.2570000   18.0610000   29.0770000  
C 15.1720000   18.9110000   28.5320000  
C 15.7150000   18.7410000   27.2230000  
C 15.4420000   17.6370000   26.4130000  
C 14.4290000   16.7010000   26.8340000  
C 15.6300000   20.1790000   28.9660000  
C 16.4280000   20.7530000   27.9890000  
N 16.4760000   19.7990000   27.0060000  
O 16.8130000   22.8190000   29.0770000  
C 17.0460000   22.0860000   27.9730000  
O 17.7180000   22.6400000   27.1080000  
O 13.9090000   15.9140000   26.1140000  
O 13.0530000   16.0700000   28.8040000  
H 13.7790000   18.2110000   30.0710000  
H 15.3590000   20.6470000   29.9240000  
H 16.1420000   22.2720000   29.5560000  
H 17.0190000   20.0020000   26.2040000  
C 16.1300000   17.6780000   25.0950000  
C 17.4670000   17.3310000   24.8550000  
C 18.1030000   17.5230000   23.6350000  
C 17.4460000   17.8170000   22.4460000  
C 16.0620000   17.9500000   22.6390000  
C 15.4060000   17.9230000   23.9080000  
C 18.5180000   16.9620000   25.8120000  
C 19.7260000   16.8780000   25.1170000  
N 19.4450000   17.2230000   23.7670000  
O 21.0610000   16.1350000   26.8880000  
C 21.0090000   16.4990000   25.6270000  
O 22.0710000   16.5340000   24.9760000  
O 15.2190000   18.2080000   21.5360000  
O 14.1070000   18.3570000   23.9950000  
H 18.2790000   16.6850000   26.8270000  
H 20.1890000   16.4410000   27.2160000  
H 20.1040000   17.1750000   22.9970000  
H 15.8780000   18.1810000   20.8230000  
H 13.7970000   18.6260000   23.1360000  
C 18.1400000   18.0020000   21.1300000  
C 17.7650000   17.1820000   20.0350000  
C 18.4060000   17.3490000   18.8360000  
C 19.4750000   18.1830000   18.6010000  
C 19.9010000   18.9790000   19.7520000  
C 19.2200000   18.8820000   20.9600000  
C 16.8620000   16.0340000   19.8180000  
C 17.1500000   15.5670000   18.5530000  
N 18.1280000   16.3370000   17.9420000  
O 15.6170000   13.8670000   18.7210000  
C 16.4110000   14.4450000   17.8750000  
O 16.5300000   14.0620000   16.7070000  
O 20.8950000   19.8560000   19.5930000  
O 19.5620000   19.7130000   21.9650000  
H 16.1090000   15.5350000   20.4520000  
H 15.7540000   14.2890000   19.5530000  
H 18.4920000   16.1870000   16.9750000  
H 21.3480000   19.8160000   18.6860000  
H 20.1960000   20.4050000   21.6860000  
C 20.2470000   17.8850000   17.3750000  
C 20.1780000   18.7810000   16.2360000  
C 20.8520000   18.5160000   15.0830000  
C 21.5740000   17.3500000   14.9470000  
C 21.7460000   16.4920000   16.1060000  
C 21.2130000   16.8300000   17.2850000  
C 19.3730000   19.9180000   15.9620000  
C 19.6400000   20.3300000   14.6960000  
N 20.5560000   19.4640000   14.1370000  
O 18.0870000   22.0670000   14.5440000  
C 18.9670000   21.3310000   13.8690000  
O 19.3030000   21.5550000   12.7520000  
O 22.5130000   15.3750000   16.0310000  
O 21.4740000   16.0630000   18.3250000  
H 18.7300000   20.4130000   16.6820000  
H 17.9730000   21.5650000   15.3570000  
H 21.0270000   19.7290000   13.2620000  
H 22.3520000   14.8310000   16.8620000  
H 21.1340000   16.5710000   19.0710000  
H 22.0350000   17.0360000   14.0290000  
