76
101 
C 13.0660000   16.0540000   27.2430000  
C 12.6990000   17.3360000   27.7520000  
C 13.2030000   18.5040000   27.2090000  
C 14.0520000   18.4880000   26.1100000  
C 14.5860000   17.3500000   25.5920000  
C 14.1100000   16.0270000   26.0710000  
C 12.9460000   19.9160000   27.3740000  
C 13.6090000   20.6160000   26.3630000  
N 14.3270000   19.7360000   25.7060000  
O 12.5490000   22.6350000   26.8590000  
C 13.4920000   22.0700000   26.0820000  
O 14.2240000   22.6690000   25.3460000  
O 14.5630000   14.9710000   25.6720000  
O 12.6800000   14.9870000   27.7350000  
H 12.0140000   17.3060000   28.5500000  
H 12.3550000   20.3080000   28.1390000  
H 12.1850000   21.8240000   27.2500000  
H 15.0460000   19.9840000   24.9920000  
C 15.4750000   17.5270000   24.4110000  
C 16.7260000   18.2180000   24.5390000  
C 17.5140000   18.3610000   23.4520000  
C 17.1490000   17.9170000   22.1360000  
C 15.8960000   17.3120000   21.9250000  
C 15.0970000   17.1100000   23.0770000  
C 17.2450000   19.0570000   25.5930000  
C 18.4510000   19.4960000   25.1430000  
N 18.6110000   19.1580000   23.7640000  
O 19.1600000   20.4190000   27.2460000  
C 19.4660000   20.1700000   25.9130000  
O 20.6060000   20.5170000   25.5290000  
O 15.5370000   16.8310000   20.7080000  
O 13.8400000   16.5660000   22.9490000  
H 16.8150000   19.1440000   26.6400000  
H 18.1740000   20.2410000   27.3850000  
H 19.4260000   19.1800000   23.2490000  
H 16.2700000   16.9850000   20.0910000  
H 13.6980000   16.0490000   22.1580000  
C 18.0630000   18.1900000   21.0030000  
C 18.9400000   17.2070000   20.5970000  
C 19.9200000   17.4840000   19.7250000  
C 20.0210000   18.6420000   18.9920000  
C 19.1300000   19.6600000   19.2950000  
C 18.1360000   19.4370000   20.3090000  
C 19.1650000   15.8970000   21.1220000  
C 20.2810000   15.3740000   20.4360000  
N 20.7570000   16.3690000   19.5420000  
O 20.5130000   13.5310000   21.9490000  
C 21.0180000   14.1290000   20.8630000  
O 21.9660000   13.6030000   20.2930000  
O 18.9760000   20.8050000   18.5470000  
O 17.2880000   20.4810000   20.5230000  
H 18.7150000   15.3820000   21.9400000  
H 19.7480000   14.0210000   22.2330000  
H 21.5180000   16.3140000   18.9350000  
H 19.7230000   20.8650000   17.9130000  
H 17.4790000   21.1790000   19.8520000  
C 21.0640000   18.8200000   17.9080000  
C 20.9980000   17.9640000   16.7440000  
C 22.0710000   18.0320000   15.9110000  
C 23.1020000   18.9440000   16.0040000  
C 23.0620000   19.9040000   17.0000000  
C 22.0330000   19.8340000   17.9470000  
C 20.1770000   16.8780000   16.3010000  
C 20.8640000   16.3270000   15.2410000  
N 22.0780000   16.9390000   15.0130000  
O 19.4150000   14.4950000   14.9770000  
C 20.4910000   15.1280000   14.4400000  
O 21.0580000   14.7160000   13.4810000  
O 23.9160000   20.9270000   16.7720000  
O 22.0190000   20.7780000   18.9150000  
H 19.2170000   16.6400000   16.6340000  
H 19.1240000   14.9360000   15.7410000  
H 22.5880000   16.8660000   14.1400000  
H 23.4970000   21.5290000   17.4360000  
H 21.3960000   20.5040000   19.5620000  
H 23.7630000   19.0760000   15.1800000  
