76
101 
C 10.5470000   18.0520000   21.7140000  
C 10.2350000   16.7920000   22.4620000  
C 11.1960000   15.8890000   22.8330000  
C 12.5460000   16.1410000   22.6410000  
C 12.9650000   17.2030000   21.8340000  
C 12.0440000   18.2790000   21.3500000  
C 11.1890000   14.8020000   23.7200000  
C 12.5200000   14.3840000   23.9000000  
N 13.3290000   15.2660000   23.2100000  
O 11.9350000   12.6630000   25.2860000  
C 12.9670000   13.2440000   24.7310000  
O 14.0690000   12.8230000   24.9690000  
O 12.4730000   19.2460000   20.7690000  
O  9.7040000   18.8240000   21.3570000  
H  9.1310000   16.6150000   22.4710000  
H 10.3310000   14.2610000   24.1320000  
H 11.2450000   13.2940000   25.0640000  
H 14.3480000   15.1750000   23.1880000  
C 14.3280000   17.4430000   21.8680000  
C 15.1460000   17.0950000   20.7880000  
C 16.4850000   17.2060000   20.8060000  
C 17.2250000   17.6590000   21.8940000  
C 16.4530000   18.0760000   23.0030000  
C 15.0590000   17.9210000   22.9900000  
C 14.8840000   16.2180000   19.6970000  
C 16.0440000   15.9250000   19.0070000  
N 17.0650000   16.5660000   19.7200000  
O 15.0010000   14.4500000   17.4330000  
C 16.1530000   15.0350000   17.8420000  
O 17.2320000   14.7890000   17.2730000  
O 17.0420000   18.6720000   24.0980000  
O 14.3710000   18.1460000   24.1410000  
H 13.9490000   15.8280000   19.4450000  
H 14.3320000   14.9020000   18.0060000  
H 18.0570000   16.4510000   19.5400000  
H 18.0080000   18.4700000   24.1210000  
H 15.0070000   18.5500000   24.7900000  
C 18.7210000   17.9150000   21.7070000  
C 19.2270000   18.6090000   20.6110000  
C 20.5560000   19.0180000   20.5940000  
C 21.5600000   18.7860000   21.5920000  
C 21.0590000   18.0290000   22.6940000  
C 19.6840000   17.5630000   22.6890000  
C 18.6660000   19.2330000   19.3980000  
C 19.6750000   19.9320000   18.7400000  
N 20.8520000   19.8420000   19.5530000  
O 18.2050000   20.7800000   17.0340000  
C 19.4390000   20.6850000   17.4800000  
O 20.2690000   21.3260000   16.8550000  
O 21.8010000   17.7990000   23.8250000  
O 19.3210000   16.7390000   23.6670000  
H 17.6370000   19.3000000   19.0800000  
H 17.7610000   19.9980000   17.3050000  
H 21.7300000   20.2990000   19.3750000  
H 22.5150000   18.4930000   23.8680000  
H 20.1400000   16.6870000   24.2170000  
C 22.9370000   19.2660000   21.5740000  
C 23.4030000   20.1620000   22.5710000  
C 24.7350000   20.5260000   22.5600000  
C 25.6620000   19.9940000   21.6360000  
C 25.2810000   19.0840000   20.6800000  
C 23.9160000   18.7030000   20.6310000  
C 22.7950000   20.8160000   23.7390000  
C 23.7890000   21.6290000   24.3230000  
N 24.9570000   21.4190000   23.5790000  
O 22.4550000   22.3950000   26.0670000  
C 23.5970000   22.5430000   25.4110000  
O 24.4280000   23.3760000   25.7200000  
O 26.2520000   18.4850000   19.9640000  
O 23.4630000   17.8970000   19.6630000  
H 21.7810000   20.7930000   24.0330000  
H 21.9780000   21.8030000   25.4860000  
H 25.7970000   21.7370000   24.0080000  
H 25.8550000   17.8430000   19.3240000  
H 22.4700000   17.8190000   19.7610000  
H 26.7520000   20.2210000   21.6690000  
