76
101 
C 13.9250000   16.9290000   28.3860000  
C 13.3390000   18.3070000   28.3800000  
C 13.6610000   19.2370000   27.4130000  
C 14.5960000   18.9340000   26.4400000  
C 15.2030000   17.6900000   26.2470000  
C 14.8880000   16.5800000   27.1850000  
C 13.2730000   20.6040000   27.1950000  
C 13.9710000   21.1320000   26.0870000  
N 14.7170000   20.0490000   25.6360000  
O 13.3090000   23.4400000   26.1570000  
C 13.9370000   22.4790000   25.4690000  
O 14.5820000   22.6930000   24.5110000  
O 15.5170000   15.5510000   27.1800000  
O 13.7100000   16.0770000   29.1740000  
H 12.6750000   18.5850000   29.1690000  
H 12.6040000   21.2250000   27.8410000  
H 12.7640000   23.0740000   26.8890000  
H 15.3770000   20.0500000   24.8630000  
C 16.0980000   17.5190000   25.0630000  
C 17.5080000   17.2600000   25.1160000  
C 18.2910000   17.2270000   23.9570000  
C 17.7570000   17.3970000   22.6640000  
C 16.3130000   17.4130000   22.5820000  
C 15.5180000   17.5080000   23.7510000  
C 18.4080000   17.4160000   26.1750000  
C 19.6690000   17.6340000   25.6500000  
N 19.5770000   17.4050000   24.3560000  
O 20.6130000   18.4230000   27.7200000  
C 20.8010000   18.2200000   26.4270000  
O 21.7900000   18.5780000   25.8070000  
O 15.8640000   17.3180000   21.2960000  
O 14.1840000   17.3130000   23.6130000  
H 18.0470000   17.5250000   27.2270000  
H 19.6300000   18.2780000   27.8590000  
H 20.3370000   17.5470000   23.7490000  
H 16.6210000   16.9030000   20.8600000  
H 13.9480000   17.3840000   22.6540000  
C 18.6120000   17.6340000   21.4410000  
C 18.6910000   16.6630000   20.4230000  
C 19.4700000   16.9030000   19.2580000  
C 20.2440000   18.1290000   19.0440000  
C 20.2740000   19.0360000   20.1240000  
C 19.5090000   18.7560000   21.3190000  
C 18.0070000   15.3890000   20.1190000  
C 18.4740000   14.9280000   18.8980000  
N 19.3150000   15.8860000   18.2920000  
O 17.0340000   12.9410000   18.8540000  
C 17.9240000   13.7110000   18.2190000  
O 18.2770000   13.4130000   17.0560000  
O 20.9950000   20.1780000   20.1330000  
O 19.4230000   19.6660000   22.2890000  
H 17.3630000   14.9050000   20.7620000  
H 16.9710000   13.3320000   19.7520000  
H 19.9590000   15.7780000   17.5480000  
H 21.2440000   20.5110000   19.2830000  
H 19.7720000   20.4840000   21.9190000  
C 21.0800000   18.4250000   17.8280000  
C 20.5200000   18.3510000   16.5460000  
C 21.2700000   18.6020000   15.4340000  
C 22.6940000   18.8790000   15.5260000  
C 23.2570000   18.7660000   16.7730000  
C 22.4880000   18.5710000   17.9150000  
C 19.1500000   18.3900000   16.1520000  
C 19.1330000   18.5760000   14.7810000  
N 20.4640000   18.7330000   14.3040000  
O 16.8020000   18.4540000   14.7610000  
C 17.9190000   18.7540000   14.0160000  
O 17.9540000   19.0490000   12.8630000  
O 24.6090000   18.7270000   16.6940000  
O 23.1400000   18.4420000   19.0590000  
H 18.2890000   18.0300000   16.6760000  
H 17.1620000   18.1900000   15.6450000  
H 20.7300000   18.7810000   13.3050000  
H 24.7510000   17.8410000   16.9170000  
H 22.5000000   18.4740000   19.8010000  
H 23.2850000   19.1180000   14.6310000  
