76
101 
C 11.7270000   20.0590000   25.9510000  
C 12.1180000   19.4030000   27.1590000  
C 13.2730000   18.6440000   27.1710000  
C 14.0540000   18.2610000   26.0680000  
C 13.8960000   18.9840000   24.9050000  
C 12.7140000   19.9440000   24.7710000  
C 13.9270000   17.9990000   28.2690000  
C 15.0350000   17.2710000   27.8350000  
N 15.0890000   17.4640000   26.4740000  
O 15.7480000   16.5480000   29.9550000  
C 16.0430000   16.6100000   28.6710000  
O 17.0070000   16.0500000   28.2760000  
O 12.5920000   20.7500000   23.8520000  
O 10.6190000   20.5690000   25.7950000  
H 11.4840000   19.4220000   28.0190000  
H 13.6190000   18.1480000   29.3210000  
H 14.8120000   16.8350000   29.9890000  
H 15.7780000   17.1260000   25.8270000  
C 14.9700000   18.9430000   23.9400000  
C 14.7470000   18.2550000   22.6850000  
C 15.7320000   18.0960000   21.7610000  
C 17.1050000   18.3900000   21.9290000  
C 17.3670000   19.0910000   23.1640000  
C 16.3220000   19.3450000   24.1600000  
C 13.5620000   17.6960000   22.0980000  
C 13.9380000   17.2460000   20.8030000  
N 15.2670000   17.4870000   20.6520000  
O 11.7370000   16.4490000   20.0510000  
C 13.0550000   16.6330000   19.7620000  
O 13.4840000   16.3030000   18.6700000  
O 18.6680000   19.4470000   23.5070000  
O 16.6670000   19.8500000   25.3550000  
H 12.6000000   17.5560000   22.4880000  
H 11.6930000   16.6790000   21.0100000  
H 15.6580000   17.1930000   19.7440000  
H 19.3190000   19.1640000   22.8640000  
H 15.9060000   20.2210000   25.6760000  
C 18.1400000   18.1140000   20.8800000  
C 18.8790000   19.1050000   20.2370000  
C 19.8590000   18.8470000   19.2680000  
C 20.3970000   17.5580000   19.0650000  
C 19.7280000   16.5050000   19.7700000  
C 18.6380000   16.7840000   20.6190000  
C 18.7330000   20.5230000   20.3380000  
C 19.6610000   21.0150000   19.4070000  
N 20.4970000   20.0030000   18.9030000  
O 19.1280000   23.2500000   19.6360000  
C 19.9810000   22.3930000   19.0600000  
O 20.8960000   22.7330000   18.3800000  
O 20.0670000   15.2070000   19.6090000  
O 18.0940000   15.8150000   21.3160000  
H 18.0430000   21.1490000   20.9220000  
H 18.4790000   22.6570000   20.0920000  
H 21.2560000   20.0710000   18.2670000  
H 20.8300000   15.1100000   19.0210000  
H 18.6200000   15.0070000   21.0450000  
C 21.5530000   17.3210000   18.1900000  
C 22.7070000   16.6890000   18.5760000  
C 23.7830000   16.4660000   17.7260000  
C 23.8420000   16.9720000   16.4080000  
C 22.6680000   17.5990000   15.9740000  
C 21.5550000   17.7170000   16.8160000  
C 23.0560000   16.1720000   19.8620000  
C 24.3340000   15.6740000   19.8070000  
N 24.8370000   15.9290000   18.4560000  
O 24.7020000   15.0670000   22.1660000  
C 25.2000000   15.1320000   20.9120000  
O 26.3930000   14.8500000   20.7100000  
O 22.7400000   18.1580000   14.7070000  
O 20.3710000   18.1820000   16.1800000  
H 22.4720000   16.1570000   20.7660000  
H 23.8410000   15.4810000   22.1160000  
H 25.7550000   15.6230000   18.0970000  
H 21.8300000   18.3810000   14.4770000  
H 19.6920000   18.2430000   16.9440000  
H 24.7600000   16.9980000   15.8660000  
