76
101 
C 17.1700000   10.6890000   21.4360000  
C 18.1040000   10.0910000   22.4180000  
C 18.7530000   10.9130000   23.2970000  
C 18.5310000   12.3000000   23.3160000  
C 17.7130000   12.9950000   22.4700000  
C 17.0160000   12.2610000   21.3820000  
C 19.6250000   10.6300000   24.3850000  
C 19.9210000   11.8150000   25.0080000  
N 19.3720000   12.7860000   24.2530000  
O 21.3460000   10.8520000   26.7700000  
C 20.8150000   12.0180000   26.1950000  
O 20.9980000   13.1200000   26.7450000  
O 16.3760000   12.8510000   20.4880000  
O 16.7150000   10.0150000   20.5340000  
H 18.3550000    9.0310000   22.3070000  
H 19.9550000    9.5890000   24.7070000  
H 21.0850000   10.0380000   26.3950000  
H 19.4220000   13.7590000   24.3290000  
C 17.5720000   14.4470000   22.4930000  
C 18.6610000   15.2590000   22.0500000  
C 18.5430000   16.6140000   22.0050000  
C 17.4170000   17.3240000   22.4160000  
C 16.3320000   16.5670000   22.8970000  
C 16.4000000   15.1160000   22.9350000  
C 19.9870000   14.9470000   21.5590000  
C 20.6470000   16.2080000   21.4230000  
N 19.7070000   17.2490000   21.6620000  
O 22.7250000   15.2960000   20.7330000  
C 22.0700000   16.4570000   20.9910000  
O 22.6560000   17.5030000   20.9340000  
O 15.1250000   17.1430000   23.1460000  
O 15.3440000   14.3810000   23.3110000  
H 20.4020000   13.9900000   21.5030000  
H 22.1120000   14.5660000   20.6870000  
H 19.8500000   18.2230000   21.5560000  
H 15.3160000   18.0570000   23.2530000  
H 14.6760000   14.9920000   23.4610000  
C 17.4180000   18.7330000   22.1020000  
C 17.6930000   19.2170000   20.7800000  
C 17.6970000   20.5660000   20.5600000  
C 17.8330000   21.5420000   21.5790000  
C 17.7130000   21.0890000   22.8850000  
C 17.4510000   19.6790000   23.1370000  
C 17.7760000   18.5820000   19.5070000  
C 17.8530000   19.6150000   18.5460000  
N 17.7150000   20.8550000   19.1850000  
O 17.8210000   18.0860000   16.7980000  
C 17.8940000   19.3650000   17.0800000  
O 17.8660000   20.1800000   16.2170000  
O 17.8160000   21.8840000   23.9770000  
O 17.1760000   19.2780000   24.3790000  
H 17.5380000   17.5340000   19.3000000  
H 17.6380000   17.8110000   17.7020000  
H 17.6540000   21.7820000   18.7760000  
H 17.7920000   22.7530000   23.6550000  
H 17.2850000   20.0600000   24.8770000  
C 17.9930000   23.0000000   21.2870000  
C 16.9220000   23.7070000   20.7120000  
C 17.0130000   25.0750000   20.5910000  
C 18.2060000   25.7350000   20.9800000  
C 19.3030000   24.9690000   21.3500000  
C 19.2530000   23.6310000   21.5450000  
C 15.5100000   23.4280000   20.7160000  
C 14.8120000   24.6510000   20.4300000  
N 15.7830000   25.6340000   20.3710000  
O 12.6100000   23.9250000   20.7150000  
C 13.3640000   24.9520000   20.3160000  
O 12.8540000   26.0140000   19.9390000  
O 20.5690000   25.5870000   21.4060000  
O 20.3660000   22.9440000   21.8100000  
H 15.0430000   22.4530000   20.7150000  
H 13.1970000   23.1370000   20.7820000  
H 15.6490000   26.5970000   20.1630000  
H 21.1760000   24.8640000   21.1950000  
H 20.1390000   22.0040000   21.6750000  
H 18.3560000   26.8160000   20.7570000  
