76
101 
C 16.6520000   10.3130000   22.1630000  
C 17.7100000   10.1640000   23.1850000  
C 18.3130000   11.2340000   23.7520000  
C 18.0620000   12.5220000   23.4340000  
C 17.1750000   12.8630000   22.4660000  
C 16.3560000   11.7960000   21.7450000  
C 19.4110000   11.2590000   24.6620000  
C 19.8630000   12.5610000   24.7650000  
N 18.9920000   13.3230000   24.0070000  
O 21.3130000   12.3380000   26.5960000  
C 20.9260000   13.0960000   25.5520000  
O 21.4230000   14.2440000   25.4090000  
O 15.4980000   12.0260000   20.9280000  
O 16.0920000    9.3470000   21.6000000  
H 17.8570000    9.2120000   23.5720000  
H 19.8960000   10.3170000   25.1070000  
H 20.7470000   11.6120000   26.7460000  
H 19.1610000   14.3400000   23.8610000  
C 17.1720000   14.2820000   22.1880000  
C 18.0140000   14.7710000   21.1860000  
C 18.2150000   16.1360000   20.9560000  
C 17.6480000   17.1290000   21.8380000  
C 16.6880000   16.6070000   22.7540000  
C 16.4850000   15.1920000   22.9610000  
C 18.9800000   14.1510000   20.3180000  
C 19.7530000   15.0730000   19.6310000  
N 19.2750000   16.3340000   20.0840000  
O 21.0450000   13.6200000   18.4330000  
C 20.8420000   14.8980000   18.6900000  
O 21.4930000   15.7440000   18.1820000  
O 16.0770000   17.4900000   23.6270000  
O 15.7720000   14.7470000   24.0140000  
H 19.1290000   13.1050000   20.1990000  
H 20.2570000   13.1580000   18.8030000  
H 19.6950000   17.2350000   19.9330000  
H 16.4760000   18.4500000   23.4470000  
H 15.3530000   15.4620000   24.4550000  
C 18.0390000   18.5910000   21.7960000  
C 17.8040000   19.4640000   20.6750000  
C 17.8810000   20.7990000   20.7710000  
C 18.3880000   21.4800000   21.9340000  
C 18.8120000   20.5960000   22.9590000  
C 18.6020000   19.1930000   22.9460000  
C 17.3230000   19.1680000   19.3710000  
C 17.2940000   20.3830000   18.7160000  
N 17.4430000   21.4020000   19.5980000  
O 16.8390000   19.5760000   16.4670000  
C 17.0020000   20.6700000   17.2610000  
O 16.8420000   21.7740000   16.7690000  
O 19.3800000   21.0920000   24.1280000  
O 19.0010000   18.4470000   23.9900000  
H 17.3430000   18.2170000   18.9090000  
H 17.2340000   18.8000000   16.8760000  
H 17.3650000   22.3790000   19.3940000  
H 19.4040000   22.1040000   24.0840000  
H 19.6290000   19.0360000   24.4930000  
C 18.5230000   22.9810000   21.9140000  
C 17.4170000   23.7770000   21.6500000  
C 17.5410000   25.1030000   21.5240000  
C 18.6870000   25.8310000   21.7850000  
C 19.8230000   25.0670000   21.8220000  
C 19.7860000   23.6600000   21.9500000  
C 16.0000000   23.5120000   21.5420000  
C 15.3590000   24.7280000   21.5860000  
N 16.2980000   25.7570000   21.5140000  
O 13.1310000   23.8390000   21.7490000  
C 13.8740000   24.9090000   21.4680000  
O 13.2730000   25.9500000   21.2850000  
O 20.9640000   25.7240000   22.0310000  
O 20.9160000   22.9070000   21.8960000  
H 15.5700000   22.5130000   21.4790000  
H 13.8770000   23.3360000   22.0830000  
H 16.2180000   26.7350000   21.5250000  
H 21.6200000   25.0040000   21.8700000  
H 20.6360000   21.9100000   21.9690000  
H 18.7510000   26.9440000   21.8600000  
