76
101 
C 15.9150000   18.9630000   29.1690000  
C 17.2520000   18.5980000   29.7450000  
C 18.1870000   18.0950000   28.9260000  
C 17.9410000   17.8940000   27.5980000  
C 16.7940000   18.1650000   26.8830000  
C 15.6540000   18.6230000   27.6350000  
C 19.5890000   17.7810000   29.2250000  
C 20.1160000   17.4220000   28.0080000  
N 19.1230000   17.4880000   27.0760000  
O 22.3150000   17.1780000   28.8630000  
C 21.5290000   17.0430000   27.7960000  
O 21.8940000   16.7490000   26.6940000  
O 14.5540000   18.6670000   27.0780000  
O 15.0270000   19.3590000   29.8550000  
H 17.3810000   18.7800000   30.8170000  
H 20.1780000   17.7800000   30.1620000  
H 21.7450000   17.6170000   29.4860000  
H 19.1910000   17.2830000   26.0570000  
C 16.8440000   18.1880000   25.4310000  
C 17.0430000   17.0020000   24.6730000  
C 17.2350000   17.0680000   23.3440000  
C 17.2940000   18.1840000   22.5340000  
C 17.0810000   19.4470000   23.2380000  
C 16.8700000   19.3870000   24.6600000  
C 17.3060000   15.6820000   25.1870000  
C 17.7080000   14.9780000   24.0440000  
N 17.6360000   15.8040000   22.8840000  
O 18.0040000   13.0320000   25.3550000  
C 18.0710000   13.5230000   24.0730000  
O 18.4300000   12.8950000   23.1000000  
O 17.2150000   20.6660000   22.6160000  
O 16.6720000   20.5400000   25.3480000  
H 17.3490000   15.3790000   26.1970000  
H 17.5980000   13.7550000   25.8380000  
H 17.7930000   15.5450000   21.9370000  
H 17.8140000   20.5960000   21.8370000  
H 16.8240000   21.2380000   24.6900000  
C 17.7620000   18.1810000   21.1210000  
C 16.8860000   18.1990000   20.0710000  
C 17.3940000   18.0620000   18.8320000  
C 18.7660000   17.8740000   18.4590000  
C 19.6410000   18.0450000   19.5440000  
C 19.1680000   18.1550000   20.8750000  
C 15.5190000   18.3300000   20.0060000  
C 15.2000000   18.4880000   18.6470000  
N 16.3590000   18.1170000   17.9190000  
O 12.9850000   19.0490000   18.9830000  
C 13.9870000   18.9310000   18.0960000  
O 13.7910000   19.2240000   16.9100000  
O 20.9500000   18.0410000   19.3390000  
O 20.0810000   18.1450000   21.8910000  
H 14.9270000   18.7280000   20.8280000  
H 13.3440000   18.5480000   19.7480000  
H 16.4220000   18.1720000   16.8980000  
H 21.1340000   17.6370000   18.4940000  
H 20.9520000   18.2840000   21.4590000  
C 19.1100000   17.7530000   17.0660000  
C 19.2380000   18.8590000   16.2170000  
C 19.2360000   18.7230000   14.8150000  
C 19.1940000   17.4590000   14.2050000  
C 19.2550000   16.3350000   14.9900000  
C 19.0920000   16.4870000   16.3750000  
C 19.2070000   20.2610000   16.4550000  
C 19.3700000   20.9140000   15.2100000  
N 19.3020000   19.9370000   14.2020000  
O 19.3790000   23.1390000   16.0140000  
C 19.4240000   22.3860000   14.9060000  
O 19.5140000   22.9430000   13.8220000  
O 19.6060000   15.0990000   14.5750000  
O 18.6160000   15.3980000   17.0820000  
H 19.2150000   20.9110000   17.3240000  
H 19.3620000   22.4980000   16.7520000  
H 19.2620000   19.9600000   13.1390000  
H 19.2880000   14.3090000   15.1430000  
H 18.3150000   15.6820000   17.9770000  
H 19.3170000   17.3440000   13.1920000  
