76
101 
C 13.1970000   16.5800000   27.5630000  
C 12.2580000   17.7470000   27.5300000  
C 12.4060000   18.6780000   26.5850000  
C 13.4370000   18.6410000   25.6590000  
C 14.3550000   17.6440000   25.5220000  
C 14.3460000   16.5670000   26.5180000  
C 11.5510000   19.7710000   26.2010000  
C 12.1830000   20.4460000   25.1370000  
N 13.3050000   19.6650000   24.7820000  
O 10.5870000   22.2540000   24.7820000  
C 11.7340000   21.6480000   24.3540000  
O 12.3620000   22.1960000   23.4190000  
O 15.2360000   15.7090000   26.5440000  
O 13.0230000   15.5840000   28.2380000  
H 11.4120000   17.7220000   28.1890000  
H 10.6770000   20.0900000   26.7360000  
H 10.4140000   21.7970000   25.6040000  
H 13.7580000   19.8780000   23.9550000  
C 15.2920000   17.6710000   24.3930000  
C 16.5790000   18.2060000   24.5630000  
C 17.4210000   18.1640000   23.4740000  
C 17.2040000   17.6500000   22.1640000  
C 15.9260000   16.9970000   22.1260000  
C 14.9650000   17.0470000   23.1710000  
C 17.3740000   18.7000000   25.6440000  
C 18.6640000   18.9540000   25.2310000  
N 18.6790000   18.6710000   23.8590000  
O 19.5280000   19.3450000   27.4340000  
C 19.7900000   19.3380000   26.1280000  
O 20.8840000   19.4760000   25.7120000  
O 15.7040000   16.2770000   20.9710000  
O 13.7370000   16.3640000   23.0940000  
H 17.0180000   18.9980000   26.6480000  
H 18.6340000   18.9440000   27.4830000  
H 19.4850000   18.7970000   23.2140000  
H 16.4670000   16.3390000   20.4050000  
H 13.7270000   16.0410000   22.1670000  
C 18.0930000   17.8780000   21.0160000  
C 19.3740000   17.3260000   20.9950000  
C 20.2150000   17.6270000   19.9570000  
C 19.9550000   18.4820000   18.8390000  
C 18.7160000   19.1380000   18.9980000  
C 17.7960000   18.8540000   20.0470000  
C 20.2080000   16.6160000   21.9560000  
C 21.4850000   16.5100000   21.3750000  
N 21.4740000   17.1830000   20.1630000  
O 22.3630000   15.4820000   23.2370000  
C 22.6560000   15.9150000   21.9900000  
O 23.7510000   15.8870000   21.5740000  
O 18.2370000   19.9970000   18.0370000  
O 16.6530000   19.5810000   20.1610000  
H 19.8640000   16.2200000   22.9190000  
H 21.3980000   15.5390000   23.3010000  
H 22.3150000   17.4130000   19.7150000  
H 18.8510000   19.9160000   17.2400000  
H 16.6070000   20.1290000   19.3880000  
C 20.8860000   18.7760000   17.7490000  
C 21.3010000   17.8010000   16.8310000  
C 22.2190000   18.0060000   15.9020000  
C 23.0040000   19.2000000   15.9460000  
C 22.7000000   20.2370000   16.8500000  
C 21.6120000   19.9860000   17.7390000  
C 20.7570000   16.4830000   16.6220000  
C 21.4080000   15.9680000   15.4990000  
N 22.3400000   16.9930000   15.0450000  
O 20.1660000   13.8480000   15.3350000  
C 21.2280000   14.5450000   14.9020000  
O 22.0330000   14.0530000   14.1460000  
O 23.4720000   21.3660000   16.9120000  
O 21.4710000   20.9600000   18.6900000  
H 19.9940000   16.0550000   17.1880000  
H 19.6820000   14.4860000   15.8110000  
H 22.7180000   17.0730000   14.0930000  
H 22.9720000   22.1050000   17.3730000  
H 20.6260000   20.8570000   19.0910000  
H 23.7670000   19.3800000   15.1340000  
