76
101 
C 12.2320000   18.1200000   26.5510000  
C 11.3090000   17.1590000   25.8650000  
C 11.6900000   16.6230000   24.6820000  
C 12.9750000   16.7110000   24.1270000  
C 13.8850000   17.6240000   24.5900000  
C 13.6360000   18.3970000   25.8800000  
C 10.9100000   15.7870000   23.7920000  
C 11.7240000   15.5710000   22.6890000  
N 12.9820000   16.0930000   22.9280000  
O 10.1310000   14.4720000   21.3820000  
C 11.3500000   14.9780000   21.3600000  
O 12.1010000   14.9560000   20.3700000  
O 14.5030000   19.1200000   26.3310000  
O 12.0830000   18.6230000   27.6550000  
H 10.3640000   16.9520000   26.3510000  
H  9.8610000   15.4470000   23.9200000  
H  9.8590000   14.5710000   22.2780000  
H 13.7580000   15.9760000   22.3930000  
C 15.0160000   17.7540000   23.7420000  
C 15.0830000   18.8480000   22.8930000  
C 16.1080000   18.7970000   22.0290000  
C 17.1470000   17.8430000   22.0540000  
C 17.1480000   16.7730000   23.0350000  
C 16.0560000   16.7970000   23.9830000  
C 14.3930000   20.1380000   22.6590000  
C 15.0450000   20.6970000   21.5750000  
N 16.1190000   19.9370000   21.2050000  
O 13.4830000   22.4280000   21.2240000  
C 14.6160000   21.9220000   20.8010000  
O 15.1960000   22.3550000   19.8340000  
O 18.2090000   15.9000000   23.1200000  
O 16.0120000   15.8570000   24.9770000  
H 13.4750000   20.5430000   23.1280000  
H 13.2230000   21.9650000   22.0420000  
H 16.7550000   20.0190000   20.4430000  
H 18.5600000   15.7980000   22.2080000  
H 16.8410000   15.3710000   25.0360000  
C 18.3590000   17.9040000   21.1600000  
C 19.3100000   18.9530000   21.3130000  
C 20.3960000   18.9540000   20.5030000  
C 20.7880000   17.9580000   19.6290000  
C 19.8630000   16.8700000   19.5110000  
C 18.6360000   16.8740000   20.2880000  
C 19.3680000   20.0780000   22.3000000  
C 20.7270000   20.4930000   22.1330000  
N 21.2650000   19.9310000   20.9670000  
O 20.4810000   22.1120000   23.9350000  
C 21.2630000   21.6590000   22.8810000  
O 22.3260000   22.1990000   22.5210000  
O 20.2370000   15.8010000   18.7660000  
O 17.8160000   15.8350000   20.0640000  
H 18.5820000   20.3600000   22.9510000  
H 19.6550000   21.6310000   23.9400000  
H 22.1630000   20.0780000   20.6180000  
H 21.2230000   15.8030000   18.5520000  
H 18.0090000   15.5780000   19.1460000  
C 22.0690000   17.9890000   18.8510000  
C 23.2400000   17.5910000   19.5250000  
C 24.4180000   17.5130000   18.7650000  
C 24.4920000   17.9620000   17.4370000  
C 23.2930000   18.3560000   16.8100000  
C 22.1000000   18.2940000   17.4950000  
C 23.5100000   17.2030000   20.9400000  
C 24.8850000   16.9230000   20.9330000  
N 25.4440000   17.1440000   19.6430000  
O 25.0710000   16.1300000   23.1110000  
C 25.7390000   16.5200000   22.0640000  
O 26.9440000   16.3610000   21.9660000  
O 23.2020000   18.7440000   15.5440000  
O 20.8480000   18.5790000   16.8870000  
H 22.7850000   17.2120000   21.7590000  
H 24.1440000   16.3700000   22.8830000  
H 26.3390000   16.9090000   19.3830000  
H 22.2780000   18.8960000   15.2710000  
H 20.1610000   18.5030000   17.5050000  
H 25.3680000   18.1020000   16.9610000  
