76
101 
C 14.8410000   16.9840000   28.5090000  
C 15.6510000   17.7900000   29.4220000  
C 16.5490000   18.6900000   28.9240000  
C 16.7970000   18.7550000   27.5770000  
C 16.2720000   17.9410000   26.6140000  
C 15.2530000   16.9480000   26.9940000  
C 17.4660000   19.6170000   29.5400000  
C 18.3430000   20.1430000   28.6060000  
N 17.9180000   19.5490000   27.3790000  
O 19.7440000   21.4390000   30.1780000  
C 19.5000000   21.0460000   28.9000000  
O 20.1840000   21.4430000   27.9520000  
O 14.7240000   16.1510000   26.2080000  
O 13.9460000   16.3380000   28.9130000  
H 15.4190000   17.7110000   30.4860000  
H 17.4880000   19.9250000   30.5590000  
H 19.0740000   20.8960000   30.6390000  
H 18.4390000   19.5740000   26.4690000  
C 16.6720000   18.1290000   25.2920000  
C 17.4790000   17.1330000   24.7840000  
C 17.7670000   17.1000000   23.4890000  
C 17.4570000   18.1080000   22.5230000  
C 16.7090000   19.1490000   23.0230000  
C 16.3420000   19.2170000   24.4150000  
C 18.1860000   15.9950000   25.4070000  
C 18.7720000   15.3440000   24.3000000  
N 18.4500000   15.9680000   23.0760000  
O 19.7480000   13.7080000   25.7540000  
C 19.6390000   14.1590000   24.4540000  
O 20.1120000   13.6190000   23.4890000  
O 16.3480000   20.1650000   22.2520000  
O 15.6050000   20.2390000   24.9430000  
H 18.4420000   15.8680000   26.4620000  
H 19.0520000   14.2230000   26.2850000  
H 18.6800000   15.5620000   22.1470000  
H 16.6060000   19.9920000   21.3150000  
H 15.6930000   20.9700000   24.3220000  
C 18.0040000   17.9980000   21.1180000  
C 17.1680000   17.6690000   19.9530000  
C 17.8110000   17.4780000   18.7540000  
C 19.1900000   17.7240000   18.5040000  
C 20.0150000   18.0410000   19.6350000  
C 19.3990000   18.1040000   20.9190000  
C 15.7430000   17.6480000   19.6830000  
C 15.5950000   17.4050000   18.3180000  
N 16.9250000   17.3550000   17.6940000  
O 13.1970000   17.5820000   18.4070000  
C 14.2660000   17.3110000   17.6480000  
O 14.0840000   17.1960000   16.4080000  
O 21.3470000   18.3370000   19.5340000  
O 20.2440000   18.4040000   21.9380000  
H 14.8310000   17.9260000   20.2500000  
H 13.5780000   17.4200000   19.2720000  
H 17.1730000   17.2680000   16.7160000  
H 21.6370000   18.2720000   18.6300000  
H 21.1220000   18.1720000   21.5670000  
C 19.7180000   17.5640000   17.1330000  
C 19.6020000   18.5760000   16.2020000  
C 20.1460000   18.4010000   14.9210000  
C 20.8030000   17.2220000   14.5300000  
C 20.8290000   16.1720000   15.4670000  
C 20.3310000   16.3320000   16.7410000  
C 19.1500000   19.9420000   16.2420000  
C 19.3530000   20.5520000   15.0420000  
N 19.9310000   19.5490000   14.1730000  
O 18.4250000   22.8070000   15.2980000  
C 18.9450000   21.8890000   14.4440000  
O 19.1610000   22.2030000   13.2880000  
O 21.1970000   14.9440000   15.0740000  
O 20.4040000   15.3140000   17.6130000  
H 18.5810000   20.3810000   17.0680000  
H 18.2590000   22.4000000   16.1870000  
H 19.9670000   19.6790000   13.1490000  
H 21.3000000   14.3270000   15.8870000  
H 19.8700000   15.5410000   18.3930000  
H 21.2700000   17.1390000   13.5460000  
