76
101 
C 20.3330000   10.9170000   22.6120000  
C 19.6850000   10.4740000   23.8760000  
C 18.8390000   11.3100000   24.5300000  
C 18.6880000   12.6070000   24.1340000  
C 19.2810000   13.1820000   23.0210000  
C 20.1370000   12.3970000   22.1120000  
C 18.1310000   11.2120000   25.7350000  
C 17.3910000   12.3710000   25.9030000  
N 17.8130000   13.2440000   24.9310000  
O 16.2750000   11.7280000   27.9960000  
C 16.4440000   12.6680000   27.0400000  
O 15.9830000   13.7660000   27.1690000  
O 20.6160000   12.9000000   21.0940000  
O 21.0010000   10.1270000   21.9390000  
H 19.8790000    9.4910000   24.1530000  
H 18.1400000   10.3920000   26.4230000  
H 16.8830000   10.9810000   27.7980000  
H 17.5220000   14.2240000   24.9140000  
C 18.9190000   14.5560000   22.6560000  
C 19.8730000   15.6150000   22.7520000  
C 19.5130000   16.9370000   22.5190000  
C 18.2600000   17.4120000   22.0500000  
C 17.3270000   16.3420000   21.9500000  
C 17.6130000   14.9750000   22.2920000  
C 21.2510000   15.6640000   23.1520000  
C 21.7370000   16.9620000   22.9570000  
N 20.6450000   17.7670000   22.6460000  
O 23.9560000   16.4600000   23.5040000  
C 23.0920000   17.4590000   23.1950000  
O 23.4210000   18.6230000   23.1920000  
O 16.1280000   16.5590000   21.3630000  
O 16.6490000   14.0420000   22.0960000  
H 21.9450000   14.8650000   23.3650000  
H 23.5360000   15.5630000   23.5350000  
H 20.7050000   18.7020000   22.3960000  
H 16.1800000   17.3530000   20.8880000  
H 15.8570000   14.5340000   21.8950000  
C 17.8530000   18.8650000   21.8500000  
C 18.4930000   19.6910000   20.8730000  
C 18.0990000   21.0200000   20.6910000  
C 17.0700000   21.5800000   21.3840000  
C 16.4540000   20.7910000   22.4240000  
C 16.8370000   19.4410000   22.6240000  
C 19.5360000   19.4960000   19.8910000  
C 19.5350000   20.5890000   19.0150000  
N 18.6780000   21.5700000   19.5610000  
O 21.3980000   19.8550000   17.7180000  
C 20.4600000   20.7750000   17.8400000  
O 20.4810000   21.7470000   17.1020000  
O 15.4050000   21.3230000   23.1270000  
O 16.2390000   18.7420000   23.6740000  
H 20.0590000   18.5120000   19.7380000  
H 21.3770000   19.3640000   18.5820000  
H 18.4520000   22.5280000   19.2250000  
H 15.1630000   22.1190000   22.7650000  
H 15.6610000   19.2610000   24.2200000  
C 16.4050000   22.7730000   20.8680000  
C 15.7810000   22.7550000   19.6200000  
C 15.2570000   23.9340000   19.1190000  
C 15.2440000   25.1750000   19.8260000  
C 15.9190000   25.2660000   21.0340000  
C 16.3810000   24.0040000   21.6180000  
C 15.5350000   21.7520000   18.6630000  
C 14.6470000   22.3000000   17.7560000  
N 14.6020000   23.7050000   17.9130000  
O 14.1420000   20.2720000   16.4100000  
C 13.8600000   21.5410000   16.6950000  
O 12.9840000   22.1440000   16.0790000  
O 16.0010000   26.4520000   21.7110000  
O 16.8000000   24.0420000   22.9140000  
H 15.6480000   20.6910000   18.8880000  
H 14.8870000   20.0980000   17.0090000  
H 13.8430000   24.3010000   17.5860000  
H 16.2030000   26.1950000   22.6410000  
H 17.1510000   23.2190000   23.2100000  
H 14.7110000   26.0170000   19.4450000  
