76
101 
C 15.8820000   10.9210000   19.1700000  
C 15.3160000   10.4500000   20.3970000  
C 15.5150000   11.2470000   21.5040000  
C 16.1360000   12.4760000   21.4250000  
C 16.5900000   13.1470000   20.3090000  
C 16.5670000   12.3700000   19.0800000  
C 15.0800000   11.0210000   22.8870000  
C 15.4850000   12.1750000   23.5710000  
N 16.0800000   13.0510000   22.6730000  
O 15.0100000   11.2870000   25.6950000  
C 15.4980000   12.3400000   25.0240000  
O 15.8810000   13.3280000   25.6470000  
O 17.0320000   12.8580000   18.0570000  
O 15.7090000   10.2460000   18.1450000  
H 14.7660000    9.4700000   20.4530000  
H 14.4890000   10.1330000   23.2620000  
H 14.8740000   10.6610000   25.0130000  
H 16.2480000   13.9950000   22.8310000  
C 16.9160000   14.5550000   20.4500000  
C 18.2210000   14.9530000   20.8910000  
C 18.4670000   16.2550000   21.0520000  
C 17.5850000   17.3570000   20.9350000  
C 16.2630000   16.8810000   20.5590000  
C 15.9420000   15.5230000   20.3400000  
C 19.4310000   14.2250000   21.1940000  
C 20.3280000   15.1980000   21.5980000  
N 19.7930000   16.4910000   21.4540000  
O 22.1890000   13.6890000   22.1950000  
C 21.7980000   14.9600000   21.9980000  
O 22.6210000   15.8660000   21.9640000  
O 15.2750000   17.8130000   20.1530000  
O 14.6320000   15.2820000   19.9480000  
H 19.6170000   13.1430000   21.0520000  
H 21.3440000   13.1460000   22.1970000  
H 20.4180000   17.3090000   21.3740000  
H 15.6740000   18.6050000   19.7580000  
H 14.1780000   16.1210000   20.0000000  
C 17.9150000   18.7270000   21.4530000  
C 18.7780000   19.5200000   20.6440000  
C 19.2730000   20.7270000   21.1050000  
C 18.9620000   21.2450000   22.3360000  
C 18.0900000   20.4710000   23.1730000  
C 17.5650000   19.2120000   22.7370000  
C 19.3480000   19.2760000   19.3680000  
C 20.0300000   20.4670000   19.0810000  
N 20.0430000   21.3630000   20.1280000  
O 20.4580000   19.8080000   16.8690000  
C 20.5860000   20.7840000   17.7850000  
O 21.1010000   21.8460000   17.4420000  
O 17.7480000   20.9220000   24.3840000  
O 16.8300000   18.5140000   23.6640000  
H 19.2210000   18.2990000   18.7660000  
H 20.1760000   19.0520000   17.3530000  
H 20.5180000   22.2550000   20.1910000  
H 17.9190000   21.9140000   24.3540000  
H 16.8090000   18.9360000   24.5410000  
C 19.4090000   22.6550000   22.7830000  
C 18.5070000   23.6970000   23.0780000  
C 18.9730000   24.9120000   23.6240000  
C 20.3440000   25.1340000   23.9070000  
C 21.2140000   24.1300000   23.5270000  
C 20.7770000   22.8910000   22.9280000  
C 17.1160000   23.7010000   22.8940000  
C 16.6860000   24.9660000   23.3480000  
N 17.8570000   25.6580000   23.8610000  
O 14.3320000   24.8100000   23.1770000  
C 15.3430000   25.5740000   23.5610000  
O 15.1890000   26.7330000   23.9830000  
O 22.5550000   24.2380000   23.6920000  
O 21.6840000   21.8880000   22.6730000  
H 16.5230000   22.8590000   22.5620000  
H 14.8010000   23.9550000   23.0640000  
H 17.8200000   26.5290000   24.3960000  
H 22.9750000   23.5050000   23.1770000  
H 21.3190000   21.0650000   22.3160000  
H 20.7140000   26.0520000   24.2900000  
