76
101 
C 16.3230000   15.5370000   28.9690000  
C 16.3940000   16.8370000   29.6590000  
C 16.6270000   18.0330000   29.0180000  
C 16.8740000   18.0760000   27.6390000  
C 16.7200000   17.0110000   26.7640000  
C 16.5290000   15.6210000   27.3620000  
C 16.6670000   19.3710000   29.4890000  
C 16.8130000   20.2330000   28.4460000  
N 16.9150000   19.4060000   27.2980000  
O 16.3230000   22.2010000   29.6920000  
C 16.6990000   21.7480000   28.4700000  
O 16.9560000   22.4480000   27.4470000  
O 16.5950000   14.6570000   26.7040000  
O 16.1040000   14.4430000   29.5370000  
H 16.1320000   16.7990000   30.6760000  
H 16.4190000   19.6220000   30.4910000  
H 16.0790000   21.4340000   30.1990000  
H 17.0150000   19.7150000   26.3980000  
C 16.9180000   17.3090000   25.2840000  
C 18.1840000   17.7210000   24.8050000  
C 18.2970000   18.0870000   23.4900000  
C 17.2540000   17.9550000   22.4750000  
C 16.0570000   17.3340000   22.9330000  
C 15.9350000   17.0560000   24.3280000  
C 19.4190000   17.7060000   25.4220000  
C 20.3100000   18.0650000   24.4240000  
N 19.6320000   18.3470000   23.2430000  
O 22.3400000   17.9520000   25.7050000  
C 21.7590000   18.1330000   24.4990000  
O 22.4200000   18.3150000   23.4840000  
O 14.9430000   17.2450000   22.1490000  
O 14.7270000   16.6960000   24.7710000  
H 19.7150000   17.4590000   26.4030000  
H 21.5940000   18.0400000   26.3430000  
H 20.0420000   18.7390000   22.4530000  
H 14.9250000   17.9150000   21.4550000  
H 14.7480000   16.3370000   25.6490000  
C 17.4740000   18.3210000   21.0460000  
C 18.4430000   17.6800000   20.2110000  
C 18.5120000   18.0520000   18.8920000  
C 17.7010000   18.9770000   18.2380000  
C 16.6430000   19.5150000   19.0470000  
C 16.6680000   19.3110000   20.4280000  
C 19.4030000   16.6480000   20.4450000  
C 20.1330000   16.6140000   19.2330000  
N 19.6380000   17.5500000   18.2960000  
O 21.9970000   15.2030000   19.9930000  
C 21.4100000   15.8780000   18.9400000  
O 21.8200000   15.9250000   17.8240000  
O 15.8350000   20.3830000   18.4710000  
O 15.8450000   20.1250000   21.1830000  
H 19.6620000   16.0060000   21.2870000  
H 21.3330000   15.2980000   20.7330000  
H 19.9480000   17.7230000   17.3640000  
H 15.9640000   20.4380000   17.5140000  
H 15.6140000   20.8970000   20.6080000  
C 17.9240000   19.3650000   16.8710000  
C 17.9330000   18.3930000   15.8180000  
C 18.4230000   18.6400000   14.5700000  
C 18.8250000   19.9730000   14.1940000  
C 18.8910000   21.0000000   15.1780000  
C 18.4290000   20.6760000   16.4920000  
C 17.6550000   16.9130000   15.8500000  
C 17.8330000   16.4360000   14.5450000  
N 18.2700000   17.5340000   13.7290000  
O 17.6220000   14.2230000   15.2070000  
C 17.8220000   15.0190000   14.1050000  
O 17.9000000   14.6710000   12.9370000  
O 19.2540000   22.2420000   14.7600000  
O 18.5510000   21.6770000   17.4750000  
H 17.3470000   16.3530000   16.7880000  
H 17.8190000   14.8100000   15.9090000  
H 18.5510000   17.5610000   12.7810000  
H 19.1120000   22.8490000   15.4830000  
H 18.2490000   21.3160000   18.2980000  
H 19.2110000   20.1080000   13.1380000  
