76
101 
C 14.1900000   16.5990000   27.6600000  
C 12.7370000   17.0120000   27.5050000  
C 12.3220000   17.6280000   26.3420000  
C 13.1220000   17.8640000   25.3030000  
C 14.4980000   17.5830000   25.2590000  
C 15.1280000   16.8990000   26.4250000  
C 11.1030000   18.2550000   26.0940000  
C 11.1210000   18.8650000   24.8690000  
N 12.3740000   18.5500000   24.4140000  
O  8.9670000   20.0390000   24.9010000  
C 10.1380000   19.8020000   24.2440000  
O 10.2840000   20.3890000   23.1600000  
O 16.3380000   16.7450000   26.5210000  
O 14.6930000   16.1390000   28.7000000  
H 12.1040000   16.9680000   28.3880000  
H 10.2910000   18.3660000   26.8280000  
H  9.1300000   19.4740000   25.6690000  
H 12.7520000   18.8570000   23.4690000  
C 15.2160000   17.9760000   24.0560000  
C 16.3570000   18.7700000   24.1060000  
C 17.1480000   18.9530000   23.0470000  
C 16.9650000   18.3710000   21.7870000  
C 15.7850000   17.5920000   21.6400000  
C 14.8960000   17.4210000   22.7630000  
C 16.9610000   19.3050000   25.2870000  
C 18.1140000   19.9670000   24.8180000  
N 18.2290000   19.7890000   23.3890000  
O 18.6960000   20.5050000   27.0150000  
C 18.9090000   20.8540000   25.7220000  
O 19.7230000   21.7100000   25.4000000  
O 15.5010000   17.2900000   20.3630000  
O 13.8040000   16.6510000   22.5990000  
H 16.5580000   19.4000000   26.3240000  
H 18.0910000   19.7810000   27.0020000  
H 18.8720000   20.3490000   22.8460000  
H 16.2540000   17.7590000   19.8620000  
H 13.9720000   16.3670000   21.6710000  
C 18.0740000   18.4210000   20.7740000  
C 19.3090000   17.8080000   20.9670000  
C 20.4300000   17.9040000   20.1350000  
C 20.4510000   18.7290000   18.9790000  
C 19.1740000   19.3220000   18.6790000  
C 18.0720000   19.1820000   19.5910000  
C 19.8000000   17.0240000   22.0660000  
C 21.1310000   16.7810000   21.9030000  
N 21.5350000   17.2600000   20.6120000  
O 21.1650000   15.6170000   23.9500000  
C 21.8800000   15.9690000   22.8740000  
O 23.0460000   15.6210000   22.7460000  
O 19.0060000   19.9580000   17.5240000  
O 16.9050000   19.7870000   19.2780000  
H 19.1930000   16.6010000   22.8140000  
H 20.3320000   16.1180000   23.8390000  
H 22.4920000   17.3180000   20.2720000  
H 19.8520000   19.9840000   17.0280000  
H 17.0710000   20.4900000   18.5990000  
C 21.5850000   18.7500000   17.9140000  
C 22.0950000   17.5840000   17.2530000  
C 22.8900000   17.5750000   16.2050000  
C 23.3530000   18.8310000   15.6940000  
C 22.9860000   19.9880000   16.3230000  
C 22.0720000   19.9660000   17.4130000  
C 21.7220000   16.2170000   17.4870000  
C 22.3700000   15.4200000   16.5470000  
N 23.2590000   16.2790000   15.9050000  
O 21.6880000   13.2770000   17.2740000  
C 22.3130000   14.0210000   16.3230000  
O 22.8650000   13.5080000   15.3900000  
O 23.4220000   21.2000000   15.8220000  
O 21.7920000   21.1090000   18.0630000  
H 20.9840000   15.7950000   18.0900000  
H 21.3090000   13.8090000   17.9570000  
H 23.8440000   15.9540000   15.1490000  
H 22.8170000   21.8880000   16.2070000  
H 21.5270000   20.9280000   19.0130000  
H 24.0290000   18.9140000   14.7760000  
