76
101 
C 14.9580000   20.7690000   28.2880000  
C 13.9610000   19.7360000   28.5980000  
C 13.7780000   18.7040000   27.7130000  
C 14.4930000   18.5200000   26.5540000  
C 15.4750000   19.3610000   26.0960000  
C 15.8440000   20.5120000   26.9800000  
C 12.9290000   17.5990000   27.8470000  
C 13.0260000   16.8440000   26.7070000  
N 14.0550000   17.3950000   25.9980000  
O 11.1050000   15.5080000   27.0420000  
C 12.2760000   15.6340000   26.3600000  
O 12.5540000   14.8770000   25.4820000  
O 16.7230000   21.2740000   26.6080000  
O 15.1400000   21.7330000   29.0040000  
H 13.3870000   19.8320000   29.5090000  
H 12.2340000   17.4630000   28.6900000  
H 11.1920000   16.2220000   27.6420000  
H 14.5480000   17.0260000   25.2120000  
C 16.1820000   18.9640000   24.8850000  
C 15.5620000   18.7290000   23.6270000  
C 16.3640000   18.4510000   22.5830000  
C 17.7360000   18.2760000   22.5760000  
C 18.3460000   18.4650000   23.7620000  
C 17.6070000   18.8330000   24.9620000  
C 14.1760000   18.7920000   23.1940000  
C 14.2260000   18.5050000   21.8540000  
N 15.5990000   18.2240000   21.4630000  
O 11.8170000   18.6630000   21.4560000  
C 13.1010000   18.4740000   20.9320000  
O 13.2680000   18.2430000   19.7570000  
O 19.7150000   18.4190000   23.8540000  
O 18.3650000   18.8990000   26.1700000  
H 13.3450000   19.1010000   23.7840000  
H 11.9090000   18.8250000   22.4350000  
H 15.8510000   17.9610000   20.5130000  
H 19.9660000   17.9910000   23.0150000  
H 17.8010000   19.4030000   26.7620000  
C 18.4910000   17.9190000   21.3230000  
C 19.5200000   18.8070000   20.8400000  
C 20.1810000   18.5260000   19.6800000  
C 20.0080000   17.4050000   18.9120000  
C 19.1130000   16.4580000   19.4570000  
C 18.3500000   16.6960000   20.6180000  
C 19.8260000   20.1760000   21.1070000  
C 20.6190000   20.6450000   20.0650000  
N 20.9510000   19.5810000   19.1310000  
O 20.7780000   22.8650000   20.9230000  
C 21.1340000   22.0410000   19.9220000  
O 21.7300000   22.4390000   18.9520000  
O 18.8410000   15.2440000   18.8050000  
O 17.3430000   15.8820000   21.0090000  
H 19.5830000   20.6980000   22.0160000  
H 20.3400000   22.3140000   21.5830000  
H 21.3640000   19.7460000   18.1820000  
H 19.5860000   14.9530000   18.2940000  
H 17.2600000   15.1060000   20.4180000  
C 20.6570000   17.2330000   17.6460000  
C 21.9510000   16.4730000   17.4790000  
C 22.4760000   16.3260000   16.2390000  
C 21.8720000   16.8420000   15.0460000  
C 20.6580000   17.5740000   15.1860000  
C 20.0420000   17.7350000   16.4330000  
C 22.7910000   15.7490000   18.4200000  
C 23.8740000   15.2740000   17.6880000  
N 23.6990000   15.5950000   16.2970000  
O 25.0200000   14.4810000   19.6670000  
C 25.0650000   14.6250000   18.3000000  
O 26.0550000   14.2060000   17.6500000  
O 20.0110000   18.0910000   14.0890000  
O 18.8330000   18.3900000   16.4430000  
H 22.6310000   15.6250000   19.5180000  
H 24.3110000   15.1000000   19.9230000  
H 24.1290000   15.1940000   15.4630000  
H 19.2450000   18.5850000   14.4090000  
H 18.2700000   18.0490000   17.1410000  
H 22.3760000   16.8850000   14.1180000  
