76
101 
C 17.9610000   15.0080000   28.6970000  
C 18.0270000   16.2030000   29.5530000  
C 18.0680000   17.4310000   28.9980000  
C 17.9460000   17.6470000   27.6570000  
C 17.7160000   16.6650000   26.7040000  
C 17.6280000   15.2250000   27.1490000  
C 18.2160000   18.7390000   29.5880000  
C 18.2120000   19.7080000   28.5550000  
N 18.0860000   18.9880000   27.4020000  
O 18.6910000   21.6570000   29.8220000  
C 18.3150000   21.1720000   28.6150000  
O 18.3380000   21.9510000   27.6940000  
O 17.3490000   14.2700000   26.4350000  
O 18.1350000   13.8910000   29.1650000  
H 18.1130000   16.0710000   30.6930000  
H 18.2310000   18.8630000   30.6220000  
H 18.6540000   20.9230000   30.4220000  
H 18.0950000   19.4260000   26.4930000  
C 17.7330000   17.0970000   25.3500000  
C 18.7050000   16.6610000   24.4410000  
C 18.7940000   17.1480000   23.2170000  
C 17.8350000   17.9740000   22.6560000  
C 16.7260000   18.4190000   23.5230000  
C 16.6900000   17.9480000   24.9000000  
C 19.8260000   15.7180000   24.5660000  
C 20.4570000   15.6800000   23.3500000  
N 19.8020000   16.5410000   22.4660000  
O 22.2220000   14.1200000   23.8110000  
C 21.7580000   15.0280000   23.0000000  
O 22.3570000   15.3540000   22.0060000  
O 15.7030000   19.0720000   22.9780000  
O 15.5770000   18.1680000   25.6420000  
H 19.9890000   15.0300000   25.4030000  
H 21.6940000   13.9650000   24.6420000  
H 20.0150000   16.8080000   21.5040000  
H 15.9370000   19.4880000   22.0840000  
H 15.6370000   17.6490000   26.4610000  
C 17.8520000   18.3600000   21.2360000  
C 17.6860000   17.3810000   20.2210000  
C 17.7710000   17.6510000   18.8530000  
C 18.0060000   18.9680000   18.3520000  
C 18.0910000   20.0210000   19.3430000  
C 18.0120000   19.6690000   20.7240000  
C 17.6070000   15.9310000   20.3580000  
C 17.5020000   15.3940000   19.1050000  
N 17.6430000   16.4840000   18.1620000  
O 17.6150000   13.1520000   19.6920000  
C 17.4910000   14.0180000   18.6810000  
O 17.4820000   13.5960000   17.5180000  
O 18.1920000   21.3320000   19.0240000  
O 18.1480000   20.6270000   21.6570000  
H 17.5270000   15.3770000   21.2940000  
H 17.5850000   13.7390000   20.4200000  
H 17.6810000   16.3850000   17.2130000  
H 18.1900000   21.3760000   18.0310000  
H 18.1690000   21.4710000   21.1930000  
C 18.1350000   19.1930000   16.9360000  
C 17.2970000   20.0170000   16.2620000  
C 17.4510000   20.2510000   14.9040000  
C 18.5170000   19.6610000   14.1780000  
C 19.3770000   18.8070000   14.8760000  
C 19.1850000   18.6330000   16.2220000  
C 16.1280000   20.8980000   16.5750000  
C 15.7720000   21.5600000   15.4510000  
N 16.5950000   21.1680000   14.3870000  
O 14.1500000   23.0230000   16.3800000  
C 14.7030000   22.4740000   15.2760000  
O 14.2620000   22.7990000   14.2150000  
O 20.4100000   18.1910000   14.1940000  
O 20.0580000   17.7500000   16.8520000  
H 15.5000000   21.0030000   17.5110000  
H 14.6760000   22.6580000   17.1050000  
H 16.3400000   21.3850000   13.4060000  
H 20.6600000   17.4110000   14.6990000  
H 19.9550000   17.7990000   17.7970000  
H 18.5700000   19.7380000   13.1170000  
