76
101 
C 21.8510000   11.8840000   24.3780000  
C 20.8500000   11.3840000   25.4020000  
C 19.6850000   12.1070000   25.5100000  
C 19.3350000   13.1170000   24.7290000  
C 20.1070000   13.6760000   23.7420000  
C 21.4630000   13.1050000   23.4480000  
C 18.5880000   11.8850000   26.4040000  
C 17.5550000   12.7850000   26.0940000  
N 18.0750000   13.5430000   25.0190000  
O 15.8970000   12.0630000   27.6360000  
C 16.2540000   13.0040000   26.6840000  
O 15.5300000   13.9350000   26.3950000  
O 22.3080000   13.5480000   22.6470000  
O 23.0240000   11.4830000   24.4070000  
H 21.1800000   10.5790000   25.9930000  
H 18.4610000   11.1780000   27.1490000  
H 16.7310000   11.5610000   27.6220000  
H 17.5780000   14.3080000   24.5340000  
C 19.4860000   14.7720000   23.0300000  
C 19.8700000   16.0810000   23.3580000  
C 19.2820000   17.1000000   22.7160000  
C 18.2100000   17.0140000   21.8150000  
C 17.9240000   15.6980000   21.4260000  
C 18.4980000   14.6010000   22.0610000  
C 20.7550000   16.6520000   24.3750000  
C 20.8250000   18.0230000   24.0890000  
N 19.8880000   18.2940000   23.1570000  
O 22.4470000   18.5300000   25.7090000  
C 21.6280000   19.0380000   24.7610000  
O 21.6140000   20.2670000   24.5640000  
O 17.0080000   15.5610000   20.4200000  
O 18.0780000   13.3170000   21.7870000  
H 21.1700000   16.1460000   25.2200000  
H 22.3030000   17.5620000   25.7930000  
H 19.6010000   19.2740000   22.9410000  
H 16.5970000   16.4450000   20.2290000  
H 17.1750000   13.4450000   21.3600000  
C 17.4630000   18.1990000   21.2900000  
C 18.2080000   19.3320000   20.7620000  
C 17.4240000   20.4440000   20.4740000  
C 16.0390000   20.6010000   20.5580000  
C 15.3450000   19.4600000   21.0820000  
C 16.0540000   18.3330000   21.4940000  
C 19.5650000   19.6470000   20.3970000  
C 19.5990000   20.9500000   19.9430000  
N 18.2900000   21.4500000   19.8970000  
O 21.8590000   20.8300000   19.4910000  
C 20.7930000   21.6910000   19.4890000  
O 20.8660000   22.8340000   19.1580000  
O 14.0020000   19.5330000   21.0490000  
O 15.4160000   17.3490000   22.1840000  
H 20.4140000   18.9730000   20.4010000  
H 21.6230000   19.8710000   19.4520000  
H 17.9450000   22.3580000   19.6190000  
H 13.7150000   20.4500000   20.7180000  
H 14.4920000   17.6160000   22.1240000  
C 15.4160000   21.8600000   20.0010000  
C 15.2800000   22.0200000   18.5570000  
C 14.6060000   23.0890000   18.0400000  
C 14.2080000   24.1520000   18.8590000  
C 14.2930000   24.0230000   20.2160000  
C 14.7900000   22.8340000   20.7660000  
C 15.7760000   21.2330000   17.4420000  
C 15.5090000   21.9370000   16.2980000  
N 14.7390000   23.1270000   16.6860000  
O 16.7540000   20.4990000   14.7360000  
C 16.0880000   21.6200000   14.9480000  
O 15.9340000   22.3920000   14.0180000  
O 13.8770000   25.0750000   20.9530000  
O 14.7530000   22.7140000   22.1600000  
H 16.3810000   20.3370000   17.4910000  
H 16.5860000   19.9970000   15.5190000  
H 14.4210000   23.7890000   16.0360000  
H 13.7030000   24.7730000   21.8260000  
H 15.3390000   21.9660000   22.3940000  
H 13.7360000   25.0840000   18.4650000  
