76
101 
C 10.7120000   18.7140000   23.3670000  
C 10.3960000   17.2860000   23.5630000  
C 11.2320000   16.2380000   23.3100000  
C 12.5790000   16.5370000   23.0340000  
C 13.1280000   17.8330000   22.8900000  
C 12.2710000   18.9850000   23.1520000  
C 11.2660000   14.8430000   23.5880000  
C 12.5140000   14.2670000   23.3290000  
N 13.3070000   15.3510000   22.8520000  
O 11.8450000   12.0250000   23.6660000  
C 12.9240000   12.8330000   23.5680000  
O 14.1220000   12.5110000   23.5540000  
O 12.7020000   20.1230000   23.0720000  
O  9.9360000   19.5960000   23.3560000  
H  9.4060000   17.0230000   23.8230000  
H 10.4090000   14.3000000   24.0330000  
H 11.0580000   12.5800000   23.5980000  
H 14.2910000   15.1740000   22.5080000  
C 14.5410000   17.8230000   22.6320000  
C 14.9730000   17.5880000   21.3560000  
C 16.2670000   17.5320000   21.0870000  
C 17.2880000   17.7360000   22.0200000  
C 16.8560000   17.9680000   23.3930000  
C 15.4680000   18.0660000   23.6890000  
C 14.2820000   17.4290000   20.1500000  
C 15.2750000   17.4390000   19.1560000  
N 16.5060000   17.4880000   19.8060000  
O 13.6170000   17.3730000   17.4620000  
C 14.9320000   17.2530000   17.7400000  
O 15.7500000   17.0170000   16.8620000  
O 17.7770000   18.2860000   24.3940000  
O 15.0340000   18.3970000   24.9680000  
H 13.2350000   17.2870000   20.0590000  
H 13.1820000   17.6550000   18.2650000  
H 17.4040000   17.3300000   19.4290000  
H 18.7130000   18.1070000   24.1160000  
H 15.7400000   18.5980000   25.5050000  
C 18.7250000   17.8060000   21.6720000  
C 19.1640000   18.8190000   20.8030000  
C 20.4610000   19.0260000   20.5130000  
C 21.5040000   18.2750000   21.0630000  
C 21.1280000   17.2310000   22.0000000  
C 19.7190000   17.0180000   22.2650000  
C 18.3950000   19.8890000   20.2040000  
C 19.3110000   20.7550000   19.6590000  
N 20.6130000   20.2290000   19.8220000  
O 17.7000000   22.3390000   18.9050000  
C 18.9840000   22.0020000   18.9970000  
O 19.7950000   22.7800000   18.5590000  
O 22.0550000   16.6960000   22.8580000  
O 19.3330000   15.9500000   22.9700000  
H 17.3490000   20.1440000   20.2710000  
H 17.1630000   21.7470000   19.3960000  
H 21.4830000   20.5850000   19.4550000  
H 22.8440000   17.2570000   22.7380000  
H 20.1360000   15.4200000   22.9820000  
C 22.8990000   18.6000000   20.8110000  
C 23.8390000   19.1240000   21.7440000  
C 25.1650000   19.1690000   21.4480000  
C 25.6690000   18.8650000   20.2430000  
C 24.7740000   18.3680000   19.2570000  
C 23.4010000   18.2520000   19.4900000  
C 23.5280000   19.6470000   23.0610000  
C 24.8280000   19.8080000   23.6110000  
N 25.8110000   19.5700000   22.6100000  
O 23.8700000   20.2930000   25.6700000  
C 25.0410000   20.0590000   25.0440000  
O 26.1350000   20.1830000   25.6050000  
O 25.2190000   18.1650000   17.9450000  
O 22.6030000   17.7230000   18.5540000  
H 22.5870000   19.8070000   23.5380000  
H 23.1820000   20.1350000   24.9900000  
H 26.7530000   19.8110000   22.6750000  
H 24.4350000   17.9500000   17.4480000  
H 21.7060000   17.5840000   18.9020000  
H 26.7320000   18.9850000   19.9080000  
