76
101 
C 20.7720000   11.1310000   20.7430000  
C 20.0180000   10.3490000   21.7270000  
C 18.8970000   10.8460000   22.3320000  
C 18.5280000   12.2370000   22.1270000  
C 19.1620000   13.1510000   21.3670000  
C 20.3350000   12.6740000   20.5950000  
C 17.9300000   10.2720000   23.2530000  
C 16.9810000   11.3300000   23.5710000  
N 17.3540000   12.4650000   22.8380000  
O 15.7180000    9.9280000   25.0670000  
C 15.8500000   11.2020000   24.4830000  
O 15.1120000   12.1250000   24.7290000  
O 20.9860000   13.4350000   19.8980000  
O 21.6580000   10.7470000   19.9660000  
H 20.3400000    9.2800000   21.7880000  
H 17.8810000    9.2490000   23.6220000  
H 16.4570000    9.3930000   24.7340000  
H 16.7460000   13.2570000   22.7250000  
C 18.6760000   14.5380000   21.5100000  
C 18.9580000   15.2440000   22.6630000  
C 18.4140000   16.5410000   22.7600000  
C 17.7590000   17.2650000   21.7090000  
C 17.4860000   16.4860000   20.5260000  
C 17.9400000   15.1430000   20.4610000  
C 19.6220000   14.9460000   23.8950000  
C 19.4720000   16.0970000   24.7190000  
N 18.7370000   17.1450000   23.9940000  
O 20.5210000   15.0950000   26.6020000  
C 19.8380000   16.1810000   26.0780000  
O 19.5140000   17.1240000   26.7920000  
O 17.0150000   17.1380000   19.4640000  
O 17.7390000   14.5050000   19.2430000  
H 19.8880000   14.0280000   24.3050000  
H 20.4260000   14.4370000   25.8310000  
H 18.3970000   18.0820000   24.2430000  
H 16.1750000   17.4980000   19.6150000  
H 17.2680000   15.1220000   18.6640000  
C 17.2650000   18.6660000   21.7840000  
C 18.2340000   19.6370000   21.8090000  
C 17.9480000   20.9530000   21.8000000  
C 16.6560000   21.4300000   21.6940000  
C 15.5710000   20.4460000   21.8150000  
C 15.8930000   19.0730000   21.7990000  
C 19.6780000   19.5660000   21.6240000  
C 20.2230000   20.8240000   21.5150000  
N 19.0890000   21.7340000   21.6610000  
O 22.5190000   20.0520000   21.5720000  
C 21.6830000   21.0990000   21.5000000  
O 22.0360000   22.2320000   21.5400000  
O 14.3300000   20.9740000   21.6630000  
O 14.8640000   18.0810000   21.7580000  
H 20.2400000   18.6060000   21.6290000  
H 21.8870000   19.2720000   21.5210000  
H 19.1280000   22.7070000   21.7660000  
H 14.4250000   21.8900000   21.4490000  
H 13.9470000   18.4110000   21.7090000  
C 16.3650000   22.9330000   21.4570000  
C 16.8100000   23.6940000   20.2860000  
C 16.4580000   25.0400000   20.0790000  
C 15.8060000   25.8240000   21.0830000  
C 15.4310000   25.1370000   22.2260000  
C 15.6760000   23.7310000   22.4200000  
C 17.3770000   23.1520000   19.0570000  
C 17.4480000   24.2340000   18.1710000  
N 16.8550000   25.3820000   18.8060000  
O 17.9690000   22.7860000   16.2550000  
C 17.7570000   24.0830000   16.7130000  
O 17.8180000   25.0600000   15.9830000  
O 14.8810000   25.8350000   23.2430000  
O 15.3770000   23.1400000   23.6690000  
H 17.7270000   22.1730000   18.8890000  
H 17.9250000   22.2100000   17.0660000  
H 16.8080000   26.2990000   18.3520000  
H 14.8310000   25.3760000   24.1210000  
H 15.9070000   22.3370000   23.7140000  
H 15.6220000   26.8890000   20.9360000  
