76
101 
C 10.7890000   15.9800000   19.9070000  
C 10.4740000   15.1610000   21.1370000  
C 11.4160000   15.1900000   22.1320000  
C 12.5670000   15.9410000   22.1800000  
C 12.9750000   16.7090000   21.1200000  
C 12.1950000   16.6400000   19.8320000  
C 11.5300000   14.2430000   23.2260000  
C 12.8210000   14.3930000   23.8300000  
N 13.3860000   15.4450000   23.1630000  
O 12.5470000   12.8680000   25.7150000  
C 13.4180000   13.6800000   25.0810000  
O 14.5650000   13.7850000   25.4510000  
O 12.7010000   16.9830000   18.7610000  
O 10.1100000   15.9750000   18.9100000  
H  9.6110000   14.5790000   21.1140000  
H 10.8040000   13.4810000   23.5460000  
H 11.7620000   12.8370000   25.1440000  
H 14.3480000   15.7140000   23.1250000  
C 14.3120000   17.2410000   21.2440000  
C 15.3910000   16.5490000   20.6680000  
C 16.6820000   17.0090000   20.9350000  
C 17.0110000   18.2210000   21.6350000  
C 15.8700000   19.0070000   21.9380000  
C 14.5370000   18.5010000   21.8270000  
C 15.4740000   15.3030000   20.0700000  
C 16.8360000   15.0830000   19.8390000  
N 17.5810000   16.0390000   20.5360000  
O 16.4460000   13.0970000   18.6280000  
C 17.3760000   13.8890000   19.1470000  
O 18.5540000   13.5860000   19.1760000  
O 16.0810000   20.2940000   22.4240000  
O 13.5100000   19.2880000   22.3060000  
H 14.7280000   14.6340000   19.8740000  
H 15.6390000   13.5590000   18.7610000  
H 18.5300000   16.1820000   20.4810000  
H 17.0020000   20.3890000   22.2430000  
H 13.9520000   20.1400000   22.5600000  
C 18.4860000   18.4980000   21.9530000  
C 19.3160000   18.6870000   20.8450000  
C 20.6260000   19.0520000   21.0150000  
C 21.2800000   19.2360000   22.2410000  
C 20.4590000   19.1860000   23.3700000  
C 19.0690000   18.8510000   23.2300000  
C 19.0260000   18.6900000   19.4340000  
C 20.2380000   19.0090000   18.8030000  
N 21.2770000   19.0950000   19.8100000  
O 19.5080000   18.7040000   16.6090000  
C 20.5330000   19.0540000   17.3560000  
O 21.6070000   19.3360000   16.8610000  
O 20.9590000   19.3890000   24.6850000  
O 18.3540000   18.7150000   24.3560000  
H 18.1330000   18.3300000   18.9170000  
H 18.9110000   18.4240000   17.3220000  
H 22.2840000   19.2440000   19.5890000  
H 21.9200000   19.5280000   24.5880000  
H 18.9640000   18.6890000   25.1010000  
C 22.7080000   19.7230000   22.3630000  
C 22.8720000   20.9530000   22.9650000  
C 24.0790000   21.5280000   23.0760000  
C 25.2520000   20.9230000   22.6510000  
C 25.1700000   19.6240000   22.0220000  
C 23.8590000   18.9990000   21.9310000  
C 21.9200000   22.0270000   23.4020000  
C 22.6770000   22.9990000   24.0390000  
N 24.0160000   22.7490000   23.8060000  
O 20.9470000   24.4820000   24.8560000  
C 22.2350000   24.1570000   24.8600000  
O 23.0530000   24.6920000   25.6020000  
O 26.3250000   18.9570000   21.5470000  
O 23.6860000   17.7930000   21.3770000  
H 20.8350000   21.9320000   23.3830000  
H 20.3480000   23.8800000   24.3530000  
H 24.7560000   23.3100000   24.1130000  
H 26.0590000   18.0480000   21.3250000  
H 22.8570000   17.3980000   21.5710000  
H 26.2210000   21.3960000   22.7700000  
