76
101 
C 14.1560000   11.4390000   22.1220000  
C 14.6430000   10.7380000   20.8910000  
C 15.5940000   11.2460000   20.1090000  
C 16.0710000   12.5260000   20.3900000  
C 15.8640000   13.2990000   21.4870000  
C 14.9060000   12.7440000   22.4840000  
C 16.1820000   10.8310000   18.8700000  
C 17.0530000   11.7770000   18.4310000  
N 17.0550000   12.7640000   19.3620000  
O 17.6470000   10.5770000   16.4920000  
C 17.7100000   11.7710000   17.1120000  
O 18.3600000   12.6270000   16.6550000  
O 14.5160000   13.3650000   23.4810000  
O 13.1880000   11.0380000   22.7410000  
H 14.1990000    9.7720000   20.5850000  
H 15.9420000    9.8300000   18.4080000  
H 17.2040000    9.9980000   17.0990000  
H 17.7630000   13.5280000   19.4140000  
C 16.4790000   14.5720000   21.6890000  
C 15.6540000   15.7450000   21.7850000  
C 16.2510000   16.9470000   21.9050000  
C 17.6410000   17.1580000   22.0330000  
C 18.4910000   15.9510000   22.0260000  
C 17.9200000   14.6810000   21.8030000  
C 14.2670000   15.9310000   21.6270000  
C 14.0150000   17.2770000   21.6810000  
N 15.3270000   17.9240000   21.7820000  
O 11.6360000   16.9940000   21.3030000  
C 12.6450000   17.8570000   21.4580000  
O 12.4630000   19.0860000   21.3960000  
O 19.8190000   16.0250000   22.2910000  
O 18.7810000   13.5840000   21.8730000  
H 13.6060000   15.1590000   21.2620000  
H 12.1600000   16.1590000   21.4120000  
H 15.5530000   18.9130000   21.8670000  
H 19.9860000   16.9550000   22.4330000  
H 19.6850000   13.9810000   21.9920000  
C 18.3560000   18.5360000   21.9800000  
C 18.1840000   19.5040000   23.0040000  
C 18.6280000   20.7730000   22.7970000  
C 19.5500000   21.1910000   21.8190000  
C 19.8730000   20.1940000   20.8430000  
C 19.2600000   18.9460000   20.9530000  
C 17.4600000   19.5240000   24.2280000  
C 17.5920000   20.7940000   24.8010000  
N 18.3220000   21.5610000   23.8740000  
O 16.4140000   20.2420000   26.7520000  
C 17.0530000   21.2320000   26.1100000  
O 17.0440000   22.3740000   26.5210000  
O 20.6620000   20.4680000   19.7460000  
O 19.5400000   18.0330000   19.8900000  
H 17.0130000   18.6300000   24.7370000  
H 16.8460000   19.4660000   26.4860000  
H 18.6860000   22.5110000   23.9960000  
H 21.0890000   21.3130000   19.8340000  
H 20.0030000   18.5340000   19.2630000  
C 20.0650000   22.5530000   21.8510000  
C 21.3960000   22.9410000   22.0220000  
C 21.8270000   24.2230000   21.7930000  
C 20.9890000   25.2370000   21.3160000  
C 19.6730000   24.8810000   21.0220000  
C 19.2510000   23.5920000   21.3090000  
C 22.5670000   22.2090000   22.5240000  
C 23.5790000   23.1540000   22.6410000  
N 23.1400000   24.3220000   22.0890000  
O 25.1750000   21.6200000   23.6780000  
C 24.9380000   22.8740000   23.2710000  
O 25.8150000   23.7050000   23.3370000  
O 18.8220000   25.7290000   20.3890000  
O 17.9750000   23.1820000   20.8940000  
H 22.4770000   21.2240000   22.9120000  
H 24.3750000   21.1340000   23.4390000  
H 23.6940000   25.1360000   21.9660000  
H 17.9790000   25.3040000   20.1660000  
H 17.8730000   22.3000000   21.0310000  
H 21.2740000   26.2460000   21.1410000  
