76
101 
C 10.2670000   17.7550000   22.0060000  
C 10.1250000   16.3780000   22.4800000  
C 11.2310000   15.6120000   22.8190000  
C 12.5620000   16.1470000   22.7700000  
C 12.8590000   17.4160000   22.2920000  
C 11.7710000   18.3870000   21.9790000  
C 11.3600000   14.2980000   23.2780000  
C 12.7400000   14.0030000   23.5550000  
N 13.4750000   15.1360000   23.1240000  
O 12.2730000   12.0330000   24.5170000  
C 13.2720000   12.8840000   24.2720000  
O 14.3950000   12.7060000   24.6590000  
O 12.0020000   19.5110000   21.6870000  
O  9.3360000   18.4330000   21.6680000  
H  9.0780000   16.0260000   22.6220000  
H 10.4340000   13.7210000   23.4450000  
H 11.4820000   12.5730000   24.2800000  
H 14.4700000   15.2150000   23.2940000  
C 14.2420000   17.7610000   22.3560000  
C 15.0570000   17.2890000   21.3210000  
C 16.3370000   17.5350000   21.3550000  
C 16.9620000   18.4680000   22.1820000  
C 16.1150000   18.9480000   23.2580000  
C 14.7690000   18.6450000   23.3420000  
C 14.7700000   16.4190000   20.1710000  
C 16.0110000   16.3000000   19.4450000  
N 16.9780000   16.9560000   20.2700000  
O 15.0890000   14.8810000   17.7770000  
C 16.1710000   15.5530000   18.1850000  
O 17.2820000   15.4230000   17.5950000  
O 16.6460000   19.8540000   24.0800000  
O 13.9980000   19.1740000   24.3910000  
H 13.8980000   15.9490000   19.8900000  
H 14.2990000   15.1420000   18.3090000  
H 17.9450000   17.1520000   20.0100000  
H 17.5930000   20.0390000   23.7700000  
H 14.5710000   19.9060000   24.7670000  
C 18.4080000   18.8250000   22.0180000  
C 19.0380000   19.6140000   20.9670000  
C 20.3780000   19.6590000   20.7920000  
C 21.2710000   18.8900000   21.4530000  
C 20.7220000   18.1150000   22.5210000  
C 19.3380000   18.0250000   22.7420000  
C 18.4860000   20.4230000   19.9720000  
C 19.5680000   21.0640000   19.3140000  
N 20.7760000   20.4810000   19.7880000  
O 18.3530000   22.6500000   18.0120000  
C 19.5340000   22.1190000   18.3190000  
O 20.5220000   22.4620000   17.6430000  
O 21.5450000   17.3520000   23.3240000  
O 18.9190000   16.9490000   23.4240000  
H 17.4790000   20.6480000   19.8800000  
H 17.7170000   22.0390000   18.3500000  
H 21.7580000   20.7410000   19.5460000  
H 22.4170000   17.3830000   22.9720000  
H 19.7350000   16.4460000   23.5920000  
C 22.6840000   18.8920000   21.1290000  
C 23.6710000   19.2720000   22.0880000  
C 24.9860000   19.2970000   21.8330000  
C 25.4610000   18.8830000   20.6230000  
C 24.6360000   18.4740000   19.5960000  
C 23.2150000   18.5080000   19.7870000  
C 23.5190000   19.7440000   23.4200000  
C 24.7860000   19.9420000   23.9360000  
N 25.6960000   19.7170000   22.9180000  
O 24.2110000   20.4590000   26.0830000  
C 25.1780000   20.5300000   25.2130000  
O 26.2350000   21.1920000   25.3440000  
O 25.1330000   17.9060000   18.4620000  
O 22.3800000   18.0710000   18.8580000  
H 22.5760000   19.8380000   23.8800000  
H 23.6080000   19.8440000   25.6770000  
H 26.7010000   19.9250000   22.9890000  
H 24.4950000   17.3330000   18.1290000  
H 21.4560000   18.0170000   19.1950000  
H 26.5710000   18.8650000   20.3550000  
