76
100 
C 14.9390000   10.1830000   23.1520000  
C 13.5550000    9.9630000   22.6360000  
C 12.8090000   10.9960000   22.1170000  
C 13.3370000   12.2490000   21.8840000  
C 14.5910000   12.6110000   22.3580000  
C 15.4760000   11.6280000   22.9580000  
C 11.4690000   11.0350000   21.5690000  
C 11.2260000   12.3810000   21.1450000  
N 12.3820000   13.0910000   21.4120000  
O  8.8440000   11.9890000   20.7290000  
C  9.8790000   12.8270000   20.6770000  
O  9.7290000   14.0020000   20.3760000  
O 16.5950000   11.9310000   23.4050000  
O 15.5560000    9.2860000   23.7320000  
H 13.0860000    8.9760000   22.7100000  
H 10.6500000   10.3410000   21.6630000  
H  9.2800000   11.1310000   21.0250000  
H 12.5300000   14.0780000   21.1730000  
C 14.9310000   14.0020000   22.1650000  
C 14.8360000   14.9570000   23.1900000  
C 15.2230000   16.2320000   22.9540000  
C 15.7440000   16.6840000   21.6980000  
C 15.7450000   15.7580000   20.6380000  
C 15.3910000   14.4500000   20.9260000  
C 14.6290000   14.8870000   24.5960000  
C 14.9650000   16.1550000   25.0850000  
N 15.3310000   17.0040000   24.0700000  
O 14.9590000   15.4650000   27.3410000  
C 15.1650000   16.5160000   26.5140000  
O 15.4360000   17.6240000   26.8870000  
O 16.1570000   16.2420000   19.4370000  
O 15.4220000   13.5210000   19.9410000  
H 14.1970000   13.9980000   25.1080000  
H 14.8950000   14.5660000   26.8800000  
H 15.5430000   18.0220000   24.1360000  
H 16.6990000   17.0300000   19.6130000  
H 15.8320000   13.9230000   19.1500000  
C 16.0690000   18.0880000   21.4590000  
C 17.3720000   18.5670000   21.6100000  
C 17.6520000   19.8900000   21.5510000  
C 16.6810000   20.8520000   21.2100000  
C 15.3800000   20.3870000   20.8830000  
C 15.0970000   19.0310000   21.0970000  
C 18.5720000   17.9690000   22.0980000  
C 19.5580000   18.9250000   22.2480000  
N 18.9890000   20.1750000   21.8800000  
O 21.2040000   17.4440000   22.9350000  
C 20.9220000   18.6690000   22.5640000  
O 21.7830000   19.5120000   22.6810000  
O 14.4800000   21.2360000   20.4140000  
O 13.9100000   18.5480000   20.7760000  
H 18.7460000   16.9220000   22.1930000  
H 20.3840000   16.9900000   23.0770000  
H 19.3660000   21.1040000   21.8940000  
H 14.8760000   22.0740000   20.2510000  
H 14.0250000   17.5340000   20.7650000  
C 17.0060000   22.3580000   21.2170000  
C 17.4290000   23.0970000   20.1030000  
C 17.5360000   24.3950000   20.2030000  
C 17.1920000   25.2050000   21.3290000  
C 16.7310000   24.5370000   22.4610000  
C 16.7120000   23.0880000   22.4200000  
C 17.7040000   22.7180000   18.7390000  
C 18.0780000   23.8880000   18.0720000  
N 17.9680000   24.9440000   19.0040000  
O 18.2950000   22.9450000   15.9200000  
C 18.4540000   24.0400000   16.6450000  
O 18.7940000   25.0290000   16.1310000  
O 16.4450000   25.2290000   23.5830000  
O 16.5110000   22.3610000   23.5850000  
H 17.6500000   21.7430000   18.3070000  
H 18.0830000   22.2050000   16.5150000  
H 18.1680000   25.9220000   18.7360000  
H 16.2420000   26.1640000   23.3860000  
H 16.4370000   23.0680000   24.2410000  
H 17.2350000   26.2620000   21.3680000  
