76
101 
C 18.1380000   17.9470000   29.3240000  
C 19.3110000   17.0920000   29.5620000  
C 20.0250000   16.6760000   28.4680000  
C 19.6150000   16.9550000   27.1520000  
C 18.4690000   17.6500000   26.7760000  
C 17.5510000   18.1440000   27.8330000  
C 21.3280000   16.1370000   28.3030000  
C 21.6040000   15.9030000   26.9530000  
N 20.4930000   16.4100000   26.2290000  
O 23.7480000   15.0640000   27.3840000  
C 22.7720000   15.2730000   26.4280000  
O 22.8640000   15.0450000   25.2170000  
O 16.3740000   18.4190000   27.6680000  
O 17.5560000   18.4960000   30.3040000  
H 19.6290000   16.9700000   30.5540000  
H 21.9920000   16.0240000   29.1530000  
H 23.4790000   15.5980000   28.1450000  
H 20.4540000   16.4520000   25.2810000  
C 18.2680000   17.7050000   25.3390000  
C 17.3080000   16.8180000   24.7380000  
C 17.0010000   16.8440000   23.4070000  
C 17.6490000   17.7510000   22.5400000  
C 18.6820000   18.5520000   23.1160000  
C 18.9870000   18.5530000   24.4660000  
C 16.4030000   15.8910000   25.3520000  
C 15.6630000   15.3560000   24.3140000  
N 15.9370000   15.9820000   23.1220000  
O 14.6610000   13.4830000   25.4580000  
C 14.9070000   14.0330000   24.2550000  
O 14.4550000   13.5030000   23.3000000  
O 19.4970000   19.4070000   22.3230000  
O 20.0110000   19.3860000   24.9560000  
H 16.4290000   15.4880000   26.3970000  
H 15.0740000   14.1400000   26.0600000  
H 15.7930000   15.6170000   22.1870000  
H 19.1430000   19.3440000   21.4210000  
H 20.5810000   19.7470000   24.2500000  
C 17.2980000   17.9120000   21.0900000  
C 16.9930000   19.1420000   20.5330000  
C 16.7860000   19.2740000   19.2150000  
C 16.7730000   18.2350000   18.3130000  
C 17.1240000   16.9890000   18.8750000  
C 17.4060000   16.7860000   20.2190000  
C 16.8230000   20.4480000   21.0810000  
C 16.4980000   21.2940000   20.0210000  
N 16.5740000   20.5440000   18.8500000  
O 15.9630000   23.2530000   21.3590000  
C 16.1850000   22.7120000   20.1350000  
O 16.1260000   23.4270000   19.1060000  
O 17.4950000   16.0150000   17.9300000  
O 18.0030000   15.5960000   20.5880000  
H 16.6530000   20.7730000   22.1320000  
H 16.0940000   22.5250000   21.9850000  
H 16.6780000   20.9480000   17.9530000  
H 17.4380000   16.3780000   17.0010000  
H 18.0600000   14.9730000   19.8450000  
C 16.7270000   18.4840000   16.8220000  
C 17.7790000   19.1980000   16.1750000  
C 17.7820000   19.4960000   14.8300000  
C 16.8760000   18.8270000   13.9510000  
C 15.9060000   18.0190000   14.5470000  
C 15.8260000   17.8620000   15.9620000  
C 18.9910000   19.8890000   16.6650000  
C 19.6740000   20.4690000   15.5460000  
N 18.7800000   20.4010000   14.5110000  
O 21.6530000   21.1420000   16.7260000  
C 21.0190000   21.1240000   15.5920000  
O 21.5240000   21.6690000   14.6000000  
O 14.8720000   17.4090000   13.8330000  
O 14.8640000   17.1370000   16.4950000  
H 19.3120000   19.7700000   17.7100000  
H 20.9840000   20.6760000   17.2770000  
H 18.9240000   20.8910000   13.5750000  
H 14.3890000   16.7360000   14.3740000  
H 14.8740000   17.3390000   17.4160000  
H 16.9190000   19.0820000   12.8560000  
