76
101 
C 20.0770000   10.6610000   22.1680000  
C 19.9770000   10.3270000   23.6110000  
C 19.4660000   11.3220000   24.3760000  
C 19.0590000   12.5720000   23.9560000  
C 19.0580000   13.0140000   22.6750000  
C 19.5020000   12.0970000   21.5660000  
C 19.3440000   11.3520000   25.8220000  
C 18.9790000   12.6240000   26.2260000  
N 18.7370000   13.3450000   25.0610000  
O 18.4960000   12.0310000   28.5330000  
C 18.5960000   13.0510000   27.5750000  
O 18.2660000   14.2160000   27.8180000  
O 19.4760000   12.3650000   20.4020000  
O 20.5630000    9.8420000   21.4470000  
H 20.3710000    9.3510000   24.0120000  
H 19.5920000   10.5530000   26.4510000  
H 18.6470000   11.1400000   28.1670000  
H 18.3620000   14.2650000   24.9190000  
C 18.4240000   14.3150000   22.4740000  
C 19.2390000   15.4340000   22.5100000  
C 18.7050000   16.6610000   22.1900000  
C 17.3720000   16.9960000   21.9800000  
C 16.4960000   15.8730000   22.0750000  
C 17.0430000   14.5460000   22.2380000  
C 20.6540000   15.5540000   22.7690000  
C 20.9670000   16.8850000   22.4540000  
N 19.7250000   17.5950000   22.1020000  
O 23.3140000   16.5720000   22.6230000  
C 22.3430000   17.4600000   22.3340000  
O 22.5940000   18.6110000   21.9390000  
O 15.1690000   15.9700000   21.9400000  
O 16.1980000   13.5050000   22.4300000  
H 21.2790000   14.7740000   23.1690000  
H 22.7180000   15.8010000   22.8090000  
H 19.5760000   18.5650000   21.9620000  
H 14.8890000   16.9230000   21.9780000  
H 15.3310000   13.6950000   21.9260000  
C 16.9210000   18.3990000   21.7250000  
C 17.2190000   18.9410000   20.4570000  
C 17.2810000   20.3650000   20.3950000  
C 16.7900000   21.2960000   21.3540000  
C 16.0660000   20.6570000   22.3880000  
C 16.2640000   19.2760000   22.6910000  
C 17.9470000   18.4810000   19.3320000  
C 18.3680000   19.6250000   18.6000000  
N 17.9360000   20.7880000   19.2950000  
O 19.4890000   18.3480000   17.0690000  
C 19.1220000   19.5880000   17.3620000  
O 19.4780000   20.4830000   16.6040000  
O 15.3180000   21.4350000   23.3090000  
O 15.7490000   18.7440000   23.7780000  
H 18.2170000   17.4450000   19.0970000  
H 18.9710000   17.8640000   17.7730000  
H 18.2330000   21.7560000   19.1800000  
H 15.1750000   22.3170000   22.8270000  
H 15.3290000   19.5140000   24.3190000  
C 16.9380000   22.7490000   21.1630000  
C 16.4440000   23.4200000   20.0150000  
C 16.4950000   24.7920000   19.8860000  
C 17.1250000   25.6050000   20.8080000  
C 17.6470000   24.9630000   21.9730000  
C 17.5210000   23.5410000   22.2210000  
C 15.5620000   22.9890000   19.0100000  
C 15.1480000   24.0830000   18.2280000  
N 15.7670000   25.1680000   18.7520000  
O 13.5820000   23.0250000   16.6970000  
C 14.2610000   24.1450000   17.0770000  
O 14.2060000   25.1990000   16.4480000  
O 18.2900000   25.7610000   22.8490000  
O 17.9440000   23.0130000   23.3770000  
H 15.3150000   21.9640000   18.8170000  
H 13.8030000   22.3250000   17.3690000  
H 15.4920000   26.1000000   18.4670000  
H 18.4740000   25.2110000   23.6550000  
H 17.8340000   22.0190000   23.2650000  
H 17.3380000   26.6620000   20.6550000  
