76
101 
C 17.8940000   15.6950000   28.6670000  
C 19.2360000   15.3110000   29.0470000  
C 20.3130000   15.4330000   28.1260000  
C 20.1360000   16.0430000   26.9180000  
C 18.9490000   16.4930000   26.4150000  
C 17.7110000   16.3830000   27.2200000  
C 21.7350000   15.1650000   28.3040000  
C 22.3390000   15.6080000   27.1220000  
N 21.3070000   16.1020000   26.3370000  
O 24.6090000   14.9740000   27.6670000  
C 23.7210000   15.5230000   26.7620000  
O 24.1880000   16.0170000   25.7890000  
O 16.6060000   16.6600000   26.7880000  
O 17.0230000   15.5220000   29.4630000  
H 19.3690000   14.8680000   30.0430000  
H 22.2050000   14.7170000   29.1450000  
H 24.0780000   15.1380000   28.5030000  
H 21.4050000   16.3640000   25.3660000  
C 19.0080000   17.0160000   25.0530000  
C 18.3600000   16.2510000   24.1050000  
C 18.2280000   16.7070000   22.8690000  
C 18.8430000   17.8850000   22.4020000  
C 19.6020000   18.6360000   23.3530000  
C 19.6410000   18.2390000   24.7470000  
C 17.5690000   15.0060000   24.1240000  
C 17.1490000   14.7980000   22.7840000  
N 17.6070000   15.8660000   22.0500000  
O 15.9810000   12.7750000   23.2280000  
C 16.2210000   13.7330000   22.3100000  
O 15.7130000   13.6440000   21.1880000  
O 20.0700000   19.8420000   23.0050000  
O 20.3370000   18.9580000   25.7140000  
H 17.1040000   14.5430000   24.9230000  
H 16.3970000   12.9950000   23.9900000  
H 17.4150000   16.1660000   21.0310000  
H 20.3480000   19.7990000   22.0980000  
H 20.0610000   18.6090000   26.5550000  
C 18.5020000   18.3700000   21.0200000  
C 17.1710000   18.3950000   20.4570000  
C 16.8820000   18.7830000   19.1590000  
C 17.9190000   19.1570000   18.2600000  
C 19.1870000   19.2060000   18.7990000  
C 19.5680000   18.6910000   20.0620000  
C 15.8990000   18.3320000   21.1230000  
C 14.8880000   18.5990000   20.1960000  
N 15.5160000   18.9590000   18.9630000  
O 13.1730000   17.9820000   21.6760000  
C 13.4640000   18.5180000   20.4790000  
O 12.5500000   18.7760000   19.7280000  
O 20.2960000   19.6100000   18.0730000  
O 20.8950000   18.4870000   20.3190000  
H 15.7800000   18.0810000   22.1920000  
H 14.0630000   17.7930000   22.0510000  
H 15.0150000   19.1480000   18.0710000  
H 20.0430000   20.1630000   17.3340000  
H 21.2950000   18.8100000   19.5010000  
C 17.5120000   19.6560000   16.9340000  
C 16.8270000   20.8640000   16.8690000  
C 16.4710000   21.4220000   15.6340000  
C 16.7130000   20.7370000   14.4250000  
C 17.3440000   19.5040000   14.5620000  
C 17.7530000   18.9340000   15.7270000  
C 16.4390000   21.8770000   17.8320000  
C 15.8540000   22.9290000   17.1280000  
N 15.9530000   22.6740000   15.7720000  
O 15.2490000   24.2610000   18.9360000  
C 15.2720000   24.1580000   17.6080000  
O 14.6950000   24.9630000   16.8830000  
O 17.7200000   18.8070000   13.4710000  
O 18.4840000   17.7910000   15.7830000  
H 16.5980000   21.7750000   18.9120000  
H 15.6820000   23.4890000   19.3180000  
H 15.8010000   23.4170000   15.0360000  
H 17.8050000   17.8640000   13.7550000  
H 18.6650000   17.6050000   16.7070000  
H 16.5350000   21.1020000   13.4420000  
