76
101 
C 10.5860000   16.6870000   20.2970000  
C 10.1900000   15.6930000   21.3870000  
C 11.1180000   15.2230000   22.2540000  
C 12.4050000   15.7180000   22.2980000  
C 12.9040000   16.6720000   21.4440000  
C 12.0790000   17.1620000   20.3100000  
C 11.0690000   14.3680000   23.3720000  
C 12.3470000   14.2570000   23.9790000  
N 13.1410000   15.1200000   23.3130000  
O 11.7480000   12.4750000   25.4760000  
C 12.7230000   13.2560000   25.0260000  
O 13.8640000   13.1010000   25.4170000  
O 12.4870000   17.9340000   19.4780000  
O  9.8380000   17.1660000   19.4230000  
H  9.2050000   15.2630000   21.4170000  
H 10.1670000   13.9630000   23.8410000  
H 11.0530000   12.6140000   24.8530000  
H 14.1540000   15.2060000   23.5110000  
C 14.2680000   17.1050000   21.6020000  
C 15.3470000   16.6800000   20.7400000  
C 16.5570000   17.2250000   20.8580000  
C 16.9540000   18.0890000   21.9200000  
C 15.9170000   18.5340000   22.7860000  
C 14.5630000   18.0650000   22.5890000  
C 15.3970000   15.5490000   19.8480000  
C 16.7650000   15.3910000   19.5710000  
N 17.4800000   16.4270000   20.1580000  
O 16.4590000   13.6960000   17.8850000  
C 17.3850000   14.3580000   18.6330000  
O 18.5930000   14.2260000   18.5090000  
O 16.2030000   19.2930000   23.8720000  
O 13.6010000   18.5150000   23.3900000  
H 14.6080000   14.9320000   19.5440000  
H 15.6530000   14.1600000   18.1780000  
H 18.4690000   16.5760000   20.1970000  
H 17.1550000   19.3330000   23.9640000  
H 14.0130000   19.0990000   23.9670000  
C 18.4420000   18.4010000   22.0980000  
C 19.1280000   19.1010000   21.0120000  
C 20.4790000   19.3860000   21.0720000  
C 21.3450000   19.0960000   22.1490000  
C 20.6460000   18.6430000   23.2580000  
C 19.2530000   18.3340000   23.2970000  
C 18.6960000   19.7290000   19.7840000  
C 19.8720000   20.0550000   19.1120000  
N 20.9330000   19.9200000   19.9810000  
O 18.7980000   20.7400000   17.0760000  
C 19.9510000   20.6510000   17.7890000  
O 20.9310000   21.1420000   17.3120000  
O 21.3280000   18.6190000   24.4140000  
O 18.7130000   17.9340000   24.5250000  
H 17.6960000   19.8130000   19.4350000  
H 18.0250000   20.3920000   17.4950000  
H 21.9260000   20.1480000   19.7390000  
H 22.2120000   18.9850000   24.1480000  
H 19.3950000   17.8760000   25.2120000  
C 22.8200000   19.3350000   22.1180000  
C 23.4180000   20.4940000   22.7170000  
C 24.7900000   20.7680000   22.5760000  
C 25.5840000   19.9360000   21.8390000  
C 25.0160000   18.7840000   21.2010000  
C 23.6580000   18.4530000   21.3030000  
C 22.7890000   21.5890000   23.3900000  
C 23.8470000   22.4570000   23.7060000  
N 25.0910000   21.9950000   23.1340000  
O 22.2800000   23.9600000   24.8520000  
C 23.5720000   23.7390000   24.4620000  
O 24.4300000   24.6050000   24.6810000  
O 25.8170000   17.8720000   20.5940000  
O 23.2440000   17.3470000   20.6640000  
H 21.7570000   21.8580000   23.4650000  
H 21.7990000   23.1910000   24.5190000  
H 25.9650000   22.5210000   23.1130000  
H 25.1680000   17.2210000   20.2050000  
H 22.3660000   17.1890000   20.8960000  
H 26.6110000   20.1030000   21.6660000  
