76
101 
C 20.9340000   16.6080000   28.7500000  
C 20.9350000   15.1640000   28.7080000  
C 20.7040000   14.5460000   27.5340000  
C 20.4110000   15.1680000   26.3400000  
C 20.3610000   16.5460000   26.1760000  
C 20.5960000   17.3630000   27.3540000  
C 20.6090000   13.1550000   27.2630000  
C 20.2870000   12.9630000   25.9280000  
N 20.2060000   14.2550000   25.3410000  
O 19.7530000   10.7280000   26.1230000  
C 19.9050000   11.7130000   25.2290000  
O 19.6700000   11.5830000   24.0470000  
O 20.6080000   18.5700000   27.2770000  
O 21.0880000   17.2130000   29.8000000  
H 21.0990000   14.6350000   29.7110000  
H 20.7660000   12.3690000   27.9910000  
H 20.1770000   11.1890000   26.8740000  
H 20.0280000   14.3640000   24.3080000  
C 19.7500000   16.9930000   24.8920000  
C 18.3750000   17.1010000   24.7000000  
C 17.8350000   17.5010000   23.5100000  
C 18.5510000   17.8210000   22.3740000  
C 19.9380000   17.8140000   22.5360000  
C 20.5140000   17.4300000   23.8200000  
C 17.2670000   17.0020000   25.6590000  
C 16.1140000   17.1100000   24.9210000  
N 16.3890000   17.3620000   23.6230000  
O 14.5290000   16.9200000   26.6630000  
C 14.6830000   17.0760000   25.3460000  
O 13.7690000   17.0830000   24.5880000  
O 20.7050000   18.1760000   21.4770000  
O 21.9280000   17.5110000   23.9860000  
H 17.4420000   16.9930000   26.6860000  
H 15.4360000   16.6660000   27.0440000  
H 15.6470000   17.6600000   22.8920000  
H 20.0930000   18.7250000   20.9280000  
H 22.4080000   17.8820000   23.2290000  
C 17.8320000   18.2480000   21.1340000  
C 17.8310000   19.5920000   20.8300000  
C 17.1990000   19.9950000   19.7090000  
C 16.3930000   19.1950000   18.8570000  
C 16.3740000   17.7910000   19.2320000  
C 17.0920000   17.3230000   20.3600000  
C 18.4930000   20.7830000   21.3570000  
C 18.2790000   21.7860000   20.4250000  
N 17.4280000   21.3300000   19.4290000  
O 19.3770000   23.6000000   21.6800000  
C 18.7670000   23.1320000   20.5360000  
O 18.5850000   23.8750000   19.5760000  
O 15.6480000   16.8970000   18.4470000  
O 16.9000000   16.0050000   20.6930000  
H 19.2010000   20.8380000   22.1870000  
H 19.5710000   22.7440000   22.0590000  
H 17.0630000   21.8550000   18.7210000  
H 15.4770000   17.2980000   17.6040000  
H 16.3690000   15.5310000   20.0080000  
C 15.6400000   19.7320000   17.6500000  
C 16.3540000   19.9950000   16.4480000  
C 15.6290000   20.4030000   15.3320000  
C 14.2380000   20.5490000   15.3300000  
C 13.5290000   20.2160000   16.5060000  
C 14.2750000   19.7400000   17.6360000  
C 17.7460000   19.9190000   16.1210000  
C 17.8590000   20.3610000   14.8250000  
N 16.5700000   20.6230000   14.3360000  
O 20.2050000   20.1110000   14.8710000  
C 19.1650000   20.4770000   14.0550000  
O 19.3660000   20.9060000   12.8950000  
O 12.2440000   20.6390000   16.6400000  
O 13.5850000   19.3070000   18.7560000  
H 18.5940000   19.4880000   16.6760000  
H 19.8300000   20.0010000   15.7370000  
H 16.2710000   20.7640000   13.3800000  
H 11.7300000   19.9700000   17.2230000  
H 14.2410000   18.9430000   19.3830000  
H 13.7530000   21.0860000   14.5210000  
