76
101 
C 17.1050000   10.8710000   19.0050000  
C 16.3620000   10.1520000   20.1490000  
C 16.2440000   10.8340000   21.3330000  
C 16.5670000   12.1710000   21.5840000  
C 17.0470000   13.0460000   20.6290000  
C 17.4330000   12.4250000   19.2750000  
C 15.6510000   10.3650000   22.5350000  
C 15.6580000   11.3730000   23.4880000  
N 16.1730000   12.4940000   22.8590000  
O 15.1940000    9.8850000   25.3740000  
C 15.2880000   11.1090000   24.9430000  
O 15.1930000   12.0340000   25.7020000  
O 17.9500000   13.1630000   18.4240000  
O 17.4320000   10.3780000   17.9390000  
H 15.9600000    9.1300000   19.9180000  
H 15.2060000    9.3870000   22.6180000  
H 15.5290000    9.4100000   24.6370000  
H 16.2470000   13.4390000   23.2800000  
C 17.1560000   14.4570000   20.9740000  
C 18.4280000   14.9400000   21.4050000  
C 18.5680000   16.3000000   21.7290000  
C 17.5250000   17.2480000   21.6260000  
C 16.1980000   16.7830000   21.2940000  
C 16.0750000   15.3620000   20.9770000  
C 19.6660000   14.2830000   21.7110000  
C 20.5580000   15.3310000   22.0720000  
N 19.8520000   16.5080000   22.1760000  
O 22.4500000   13.8200000   22.0280000  
C 21.9860000   15.0750000   22.2900000  
O 22.7510000   15.9570000   22.5740000  
O 15.1880000   17.6650000   21.1680000  
O 14.8420000   14.9840000   20.5260000  
H 19.9350000   13.2220000   21.6570000  
H 21.7890000   13.4600000   21.3490000  
H 20.2780000   17.3050000   22.6200000  
H 15.3590000   18.4650000   21.6520000  
H 14.2430000   15.7400000   20.3740000  
C 17.8110000   18.7300000   21.9050000  
C 18.9130000   19.4610000   21.3200000  
C 19.1130000   20.8110000   21.4880000  
C 18.4010000   21.6050000   22.4200000  
C 17.4520000   20.9070000   23.1280000  
C 17.0460000   19.5800000   22.8520000  
C 19.8520000   19.1620000   20.2320000  
C 20.7280000   20.2060000   20.0460000  
N 20.2330000   21.2560000   20.8490000  
O 21.9920000   19.2700000   18.3050000  
C 21.8080000   20.3320000   19.0220000  
O 22.4910000   21.2890000   18.8780000  
O 16.7280000   21.6270000   24.0270000  
O 16.0890000   19.0200000   23.6530000  
H 19.9260000   18.2390000   19.6350000  
H 21.3880000   18.6740000   18.7280000  
H 20.8050000   22.0570000   20.9190000  
H 16.9680000   22.5970000   24.0680000  
H 15.5270000   19.7070000   24.0710000  
C 18.6370000   23.0460000   22.5890000  
C 17.7510000   24.0860000   22.2870000  
C 18.0880000   25.3740000   22.4760000  
C 19.3280000   25.8310000   23.0640000  
C 20.1560000   24.8050000   23.5030000  
C 19.8500000   23.4330000   23.2120000  
C 16.4520000   24.0240000   21.6220000  
C 16.0920000   25.3740000   21.4390000  
N 17.0710000   26.1710000   22.0020000  
O 14.1040000   25.0150000   20.2310000  
C 14.8780000   25.8940000   20.7920000  
O 14.5080000   27.0450000   20.7300000  
O 21.3190000   25.0480000   24.0950000  
O 20.6170000   22.4990000   23.7360000  
H 15.9210000   23.1240000   21.3860000  
H 14.4400000   24.1330000   20.3380000  
H 17.0170000   27.1850000   22.1950000  
H 21.7580000   24.1570000   24.0070000  
H 20.0290000   21.6830000   23.8100000  
H 19.4920000   26.8830000   23.2570000  
