76
101 
C 16.5800000   15.2080000   28.6720000  
C 16.8620000   16.3490000   29.5680000  
C 17.1640000   17.5710000   29.0530000  
C 17.1500000   17.8160000   27.6950000  
C 16.8970000   16.8850000   26.6830000  
C 16.5600000   15.5240000   27.0910000  
C 17.5600000   18.8310000   29.6770000  
C 17.6880000   19.7950000   28.6700000  
N 17.4280000   19.1210000   27.4950000  
O 18.3320000   21.5560000   30.0370000  
C 18.0240000   21.1380000   28.7590000  
O 18.1070000   21.9170000   27.7980000  
O 16.2310000   14.6750000   26.3190000  
O 16.4290000   14.0820000   29.1150000  
H 16.9080000   16.1940000   30.6640000  
H 17.6200000   18.9070000   30.7830000  
H 18.1410000   20.8200000   30.6400000  
H 17.3170000   19.6920000   26.6380000  
C 17.0520000   17.3030000   25.3010000  
C 18.2870000   17.6850000   24.7610000  
C 18.4350000   18.0850000   23.4880000  
C 17.3650000   18.1400000   22.5490000  
C 16.1090000   17.8580000   23.0430000  
C 15.9480000   17.2890000   24.3380000  
C 19.5660000   17.8190000   25.3500000  
C 20.4540000   18.1360000   24.3170000  
N 19.7750000   18.2220000   23.0760000  
O 22.4260000   18.1190000   25.5660000  
C 21.8990000   18.3160000   24.3080000  
O 22.6360000   18.5590000   23.3790000  
O 14.9650000   17.8550000   22.2330000  
O 14.6500000   17.0540000   24.7140000  
H 19.8240000   17.6260000   26.3710000  
H 21.6300000   17.8880000   26.1860000  
H 20.0900000   18.4410000   22.1580000  
H 15.0650000   18.5470000   21.6380000  
H 14.6690000   16.7110000   25.6420000  
C 17.6190000   18.4540000   21.0840000  
C 18.2010000   17.4600000   20.3110000  
C 18.3900000   17.7090000   19.0190000  
C 18.0430000   18.8820000   18.3350000  
C 17.3880000   19.8820000   19.0780000  
C 17.1740000   19.6380000   20.4220000  
C 18.8500000   16.1900000   20.5700000  
C 19.4110000   15.7540000   19.3570000  
N 19.0750000   16.6930000   18.4040000  
O 20.0200000   13.7140000   20.2040000  
C 20.0670000   14.4950000   19.0870000  
O 20.5720000   14.1650000   18.0600000  
O 16.9170000   20.9850000   18.4590000  
O 16.6100000   20.5930000   21.1710000  
H 18.9820000   15.6590000   21.5370000  
H 19.7480000   14.2280000   20.9480000  
H 19.2800000   16.6630000   17.4000000  
H 17.3140000   21.0290000   17.5290000  
H 16.3080000   21.2470000   20.5330000  
C 18.4690000   19.2300000   16.9030000  
C 17.8630000   18.6790000   15.7150000  
C 18.1860000   19.1280000   14.4520000  
C 19.1150000   20.0880000   14.2890000  
C 19.8600000   20.5600000   15.4430000  
C 19.4880000   20.1540000   16.7170000  
C 16.7200000   17.8120000   15.5350000  
C 16.3090000   17.8550000   14.1930000  
N 17.2070000   18.6850000   13.5870000  
O 14.7580000   16.1830000   14.6440000  
C 15.1860000   17.0550000   13.7030000  
O 14.8250000   17.1610000   12.5480000  
O 20.7620000   21.5520000   15.2710000  
O 20.1320000   20.7770000   17.7960000  
H 16.2310000   17.1820000   16.2800000  
H 15.1170000   16.3270000   15.5090000  
H 17.2820000   18.6920000   12.5690000  
H 21.3590000   21.5650000   16.0480000  
H 19.9690000   20.2870000   18.5970000  
H 19.4310000   20.4010000   13.2560000  
