76
101 
C 22.5680000   13.0780000   25.1570000  
C 21.9360000   11.7470000   24.9500000  
C 20.7720000   11.6490000   24.2980000  
C 20.1770000   12.6950000   23.5670000  
C 20.5820000   14.0330000   23.6850000  
C 21.8270000   14.3190000   24.4570000  
C 19.9160000   10.5340000   24.0450000  
C 18.8500000   10.8570000   23.2080000  
N 19.0760000   12.2010000   22.9680000  
O 17.7230000    8.8760000   23.1520000  
C 17.6540000   10.0880000   22.7440000  
O 16.7590000   10.4970000   22.0500000  
O 22.2140000   15.4870000   24.5580000  
O 23.7060000   13.2280000   25.7220000  
H 22.4010000   10.9400000   25.3400000  
H 20.0930000    9.5340000   24.3430000  
H 18.5620000    8.8300000   23.6870000  
H 18.4890000   12.7950000   22.4020000  
C 19.7970000   15.0860000   23.0640000  
C 18.7700000   15.6840000   23.7350000  
C 18.1190000   16.7390000   23.1780000  
C 18.2430000   17.2140000   21.8340000  
C 19.2100000   16.5470000   21.0520000  
C 19.9820000   15.4870000   21.6890000  
C 18.2230000   15.5420000   25.1200000  
C 17.1640000   16.4610000   25.1600000  
N 17.0200000   17.1340000   23.9540000  
O 16.4980000   15.7070000   27.2980000  
C 16.2560000   16.6200000   26.2670000  
O 15.2990000   17.3540000   26.3830000  
O 19.4800000   16.8940000   19.7440000  
O 20.9180000   14.7600000   20.9710000  
H 18.4180000   14.6410000   25.7870000  
H 17.3540000   15.3110000   27.0200000  
H 16.3990000   17.9300000   23.7350000  
H 19.4260000   17.8460000   19.7830000  
H 20.9250000   15.1430000   20.0560000  
C 17.5290000   18.3910000   21.2870000  
C 17.7060000   19.7010000   21.7370000  
C 17.1230000   20.7870000   21.1030000  
C 16.2980000   20.6640000   19.9800000  
C 15.9960000   19.3830000   19.5450000  
C 16.6360000   18.2630000   20.1800000  
C 18.4940000   20.3040000   22.7620000  
C 18.3160000   21.7170000   22.7060000  
N 17.4480000   22.0050000   21.6530000  
O 20.0440000   22.2200000   24.3110000  
C 19.1250000   22.7010000   23.4540000  
O 18.9620000   23.9110000   23.2320000  
O 15.1520000   19.2310000   18.4720000  
O 16.1800000   17.0180000   19.7930000  
H 19.1080000   19.6920000   23.4610000  
H 19.7910000   21.2610000   24.4830000  
H 17.1390000   22.9220000   21.3690000  
H 15.0210000   20.0380000   17.9870000  
H 15.6150000   17.1310000   19.0870000  
C 15.6090000   21.8670000   19.3390000  
C 16.3550000   22.7880000   18.5450000  
C 15.6870000   23.8630000   17.9780000  
C 14.3030000   24.0040000   18.0220000  
C 13.5840000   23.0900000   18.8100000  
C 14.2740000   22.0520000   19.5690000  
C 17.6960000   22.8930000   18.0720000  
C 17.8270000   24.0330000   17.2020000  
N 16.5760000   24.5850000   17.1610000  
O 19.9880000   23.7420000   16.6000000  
C 18.9170000   24.4730000   16.3190000  
O 18.8420000   25.3310000   15.4550000  
O 12.2980000   23.3310000   19.1730000  
O 13.6240000   21.3550000   20.5840000  
H 18.5690000   22.2110000   18.2290000  
H 19.5320000   23.1410000   17.2110000  
H 16.3660000   25.2190000   16.4130000  
H 12.2410000   24.3190000   19.3220000  
H 14.1100000   20.5520000   20.9220000  
H 13.8860000   24.8810000   17.4590000  
