76
101 
C 21.2950000   16.1620000   28.2380000  
C 22.0200000   14.9350000   27.8410000  
C 21.5290000   14.1660000   26.7740000  
C 20.5100000   14.6480000   25.9100000  
C 19.9110000   15.8870000   25.9690000  
C 20.3490000   16.7640000   27.0580000  
C 21.8150000   12.8580000   26.3520000  
C 21.1090000   12.5700000   25.1890000  
N 20.2830000   13.6640000   24.9900000  
O 21.8540000   10.3600000   24.9390000  
C 21.1870000   11.3590000   24.3280000  
O 20.7240000   11.1390000   23.2640000  
O 20.0780000   17.9230000   27.1420000  
O 21.5130000   16.7520000   29.2720000  
H 22.8110000   14.5210000   28.5350000  
H 22.5080000   12.2080000   26.8360000  
H 22.0500000   10.6780000   25.8390000  
H 19.8800000   13.8620000   24.1170000  
C 19.1480000   16.3780000   24.7810000  
C 17.8570000   16.8800000   24.9460000  
C 17.2210000   17.3700000   23.8580000  
C 17.7340000   17.3570000   22.5100000  
C 19.0890000   16.9140000   22.3910000  
C 19.7920000   16.4020000   23.5300000  
C 17.0010000   17.0960000   26.1120000  
C 15.9480000   17.8800000   25.6450000  
N 16.0580000   18.0070000   24.2290000  
O 14.8140000   17.9830000   27.6990000  
C 14.7340000   18.2760000   26.4280000  
O 13.7370000   18.8240000   25.9810000  
O 19.6560000   16.9530000   21.1310000  
O 21.0620000   16.0080000   23.3460000  
H 17.0370000   16.6660000   27.0930000  
H 15.7680000   17.7160000   27.7140000  
H 15.2710000   18.1160000   23.5890000  
H 19.1700000   17.6610000   20.6590000  
H 21.3360000   16.1160000   22.4100000  
C 17.1130000   18.1460000   21.3550000  
C 17.7460000   19.3190000   20.8440000  
C 17.2030000   19.9300000   19.7320000  
C 15.9840000   19.5890000   19.1120000  
C 15.3220000   18.4250000   19.5900000  
C 15.8890000   17.7750000   20.7060000  
C 18.9660000   20.1020000   21.1470000  
C 19.1000000   21.0730000   20.1620000  
N 17.9170000   21.0920000   19.3670000  
O 21.3300000   21.8280000   20.8630000  
C 20.2690000   22.0290000   20.0330000  
O 20.2940000   22.8360000   19.1070000  
O 14.0840000   18.0860000   19.1450000  
O 15.2990000   16.6640000   21.2150000  
H 19.6660000   19.9440000   21.9740000  
H 21.0680000   21.2730000   21.6190000  
H 17.6810000   21.6430000   18.5900000  
H 13.8950000   18.7820000   18.4590000  
H 14.6160000   16.3080000   20.5620000  
C 15.4420000   20.4340000   17.9880000  
C 15.9790000   20.3900000   16.6810000  
C 15.6190000   21.3250000   15.7140000  
C 14.5550000   22.1700000   15.8840000  
C 13.9340000   22.1490000   17.1040000  
C 14.3720000   21.3060000   18.1460000  
C 17.0990000   19.6590000   16.1570000  
C 17.3580000   20.1780000   14.9080000  
N 16.4250000   21.2450000   14.6200000  
O 19.3340000   18.9320000   14.5650000  
C 18.4040000   19.7740000   14.0100000  
O 18.5600000   20.1420000   12.8810000  
O 13.0580000   23.1580000   17.3680000  
O 13.7340000   21.4180000   19.3630000  
H 17.6750000   18.9600000   16.6820000  
H 18.9430000   18.8660000   15.4490000  
H 16.3030000   21.7940000   13.7870000  
H 13.1740000   23.5430000   18.3280000  
H 14.0920000   20.6490000   19.8800000  
H 14.5200000   22.9990000   15.1400000  
