76
101 
C 19.2430000   11.0550000   24.0670000  
C 19.2990000   10.1570000   22.8550000  
C 19.0230000   10.7610000   21.6220000  
C 18.8340000   12.1030000   21.4680000  
C 18.6370000   12.9810000   22.4770000  
C 18.7130000   12.5480000   23.8590000  
C 19.1280000   10.2560000   20.2800000  
C 18.9300000   11.2810000   19.3240000  
N 18.7160000   12.3880000   20.1800000  
O 19.0970000    9.9220000   17.3280000  
C 18.9630000   11.1630000   17.8450000  
O 18.7640000   12.1590000   17.1650000  
O 18.4130000   13.2440000   24.7730000  
O 19.5270000   10.5840000   25.1440000  
H 19.6680000    9.1400000   23.0220000  
H 19.3940000    9.2080000   20.0550000  
H 18.7720000    9.2390000   17.9750000  
H 18.5510000   13.2920000   19.7900000  
C 18.4510000   14.4320000   22.1720000  
C 17.3050000   15.1180000   22.5480000  
C 17.1320000   16.4120000   22.1190000  
C 18.0610000   17.2390000   21.4450000  
C 19.2740000   16.6450000   21.1170000  
C 19.4440000   15.2040000   21.4210000  
C 16.1560000   14.7360000   23.3170000  
C 15.2600000   15.7990000   23.2640000  
N 15.9320000   16.8560000   22.5540000  
O 13.3090000   15.0970000   24.5360000  
C 13.8500000   16.0610000   23.8220000  
O 13.2030000   17.0560000   23.6120000  
O 20.2310000   17.3800000   20.4980000  
O 20.5510000   14.5690000   20.9640000  
H 15.8960000   13.7750000   23.6060000  
H 13.8320000   14.2840000   24.5550000  
H 15.5740000   17.7990000   22.3560000  
H 20.0000000   18.3270000   20.4480000  
H 20.9320000   15.2480000   20.3720000  
C 17.8320000   18.6900000   21.3680000  
C 17.6550000   19.4700000   22.5090000  
C 17.5470000   20.8270000   22.4390000  
C 17.4720000   21.5620000   21.2390000  
C 17.6370000   20.7980000   20.0690000  
C 17.7730000   19.3900000   20.1460000  
C 17.5010000   19.1340000   23.9320000  
C 17.4260000   20.3460000   24.6380000  
N 17.4450000   21.4300000   23.6890000  
O 17.2060000   19.3190000   26.8460000  
C 17.1390000   20.4740000   26.0740000  
O 16.7970000   21.5210000   26.4950000  
O 17.6970000   21.4170000   18.8860000  
O 17.7910000   18.7120000   18.9140000  
H 17.7290000   18.1390000   24.3610000  
H 17.6390000   18.6750000   26.2910000  
H 17.1860000   22.3390000   23.8800000  
H 18.0310000   22.2650000   18.9400000  
H 17.8590000   19.4240000   18.2500000  
C 17.4240000   23.0140000   21.1740000  
C 18.5240000   23.7700000   20.7500000  
C 18.3690000   25.1350000   20.5100000  
C 17.0950000   25.7490000   20.5340000  
C 16.0020000   25.0300000   20.9570000  
C 16.1720000   23.7180000   21.2910000  
C 19.9170000   23.4270000   20.5900000  
C 20.4900000   24.6130000   20.1040000  
N 19.5400000   25.6570000   20.1510000  
O 22.6520000   23.7930000   20.0320000  
C 21.9140000   24.8850000   19.7770000  
O 22.3040000   25.9690000   19.3580000  
O 14.8010000   25.6770000   21.1030000  
O 15.0740000   23.0010000   21.6140000  
H 20.4860000   22.5350000   20.7110000  
H 22.0730000   23.2360000   20.4650000  
H 19.6970000   26.6160000   19.7950000  
H 14.1460000   25.0520000   21.4810000  
H 15.3620000   22.1020000   21.9440000  
H 16.8700000   26.7330000   20.1490000  
