76
101 
C 20.5120000   14.6640000   28.1330000  
C 19.2740000   14.7680000   29.0060000  
C 18.2040000   15.4740000   28.5340000  
C 18.2240000   16.1240000   27.3150000  
C 19.2560000   16.0760000   26.4210000  
C 20.5200000   15.4270000   26.7670000  
C 16.8310000   15.5380000   29.0080000  
C 16.0500000   16.1890000   28.0940000  
N 16.9660000   16.5340000   27.0970000  
O 13.9480000   15.8320000   29.1750000  
C 14.5860000   16.3270000   28.1090000  
O 13.9340000   16.9260000   27.2680000  
O 21.4150000   15.4140000   25.9940000  
O 21.5460000   14.0270000   28.5240000  
H 19.2040000   14.1970000   29.9550000  
H 16.5970000   15.0290000   29.9190000  
H 14.4360000   15.0860000   29.4650000  
H 16.7180000   16.8370000   26.1090000  
C 18.9200000   16.6710000   25.1240000  
C 19.0650000   18.0540000   24.7580000  
C 18.8510000   18.3940000   23.4890000  
C 18.1840000   17.6040000   22.5410000  
C 17.8520000   16.2940000   22.9820000  
C 18.2350000   15.8230000   24.2390000  
C 19.8360000   19.0960000   25.4080000  
C 20.0150000   20.1250000   24.4550000  
N 19.2940000   19.7360000   23.2710000  
O 20.9460000   21.6390000   25.9590000  
C 20.6140000   21.4330000   24.6850000  
O 20.7400000   22.3300000   23.8800000  
O 17.3600000   15.4620000   22.0610000  
O 17.9840000   14.5390000   24.6780000  
H 20.3350000   18.9680000   26.3190000  
H 20.5750000   20.8480000   26.4780000  
H 19.0700000   20.2950000   22.4510000  
H 17.1670000   16.0390000   21.2910000  
H 17.7190000   13.9990000   23.8740000  
C 17.8620000   18.1740000   21.2140000  
C 18.8510000   18.5950000   20.2910000  
C 18.4720000   19.1390000   19.0830000  
C 17.1130000   19.1810000   18.6400000  
C 16.1130000   18.5490000   19.4670000  
C 16.5310000   18.0840000   20.7660000  
C 20.3260000   18.8040000   20.3530000  
C 20.6900000   19.3460000   19.1160000  
N 19.5470000   19.5090000   18.3350000  
O 23.0350000   19.6680000   19.4800000  
C 22.0210000   19.7840000   18.5860000  
O 22.2190000   20.2950000   17.4950000  
O 14.8790000   18.5170000   19.0730000  
O 15.5210000   17.7100000   21.6030000  
H 21.0070000   18.5800000   21.1890000  
H 22.5950000   19.1950000   20.2490000  
H 19.6120000   19.8900000   17.4250000  
H 15.0560000   18.8280000   18.1060000  
H 14.6990000   17.7190000   21.0870000  
C 16.6290000   19.8000000   17.3980000  
C 16.3650000   19.0890000   16.2610000  
C 15.9260000   19.6200000   15.1160000  
C 15.6210000   20.9830000   15.0140000  
C 15.9630000   21.7710000   16.1310000  
C 16.5570000   21.2010000   17.2590000  
C 16.4570000   17.6180000   16.0200000  
C 16.1090000   17.4140000   14.6800000  
N 15.7650000   18.6540000   14.1610000  
O 16.4740000   14.9930000   14.4040000  
C 16.1580000   16.1720000   13.8170000  
O 16.0900000   16.2770000   12.5790000  
O 15.7500000   23.1340000   16.0740000  
O 16.7230000   22.0380000   18.3480000  
H 16.9650000   16.8530000   16.6050000  
H 16.4120000   15.2060000   15.3930000  
H 15.5840000   18.7620000   13.2010000  
H 15.7620000   23.5640000   16.8950000  
H 17.0950000   21.5780000   19.1190000  
H 15.2280000   21.3970000   14.1110000  
