76
101 
C 12.1590000   14.9500000   18.2610000  
C 11.6160000   13.9730000   19.2780000  
C 12.1510000   13.9860000   20.5200000  
C 13.2110000   14.7190000   20.9370000  
C 13.9660000   15.4980000   20.1230000  
C 13.5190000   15.6680000   18.7100000  
C 11.7270000   13.2810000   21.6670000  
C 12.5550000   13.6060000   22.7800000  
N 13.4330000   14.5210000   22.3000000  
O 11.3640000   12.3380000   24.3940000  
C 12.3950000   13.2290000   24.2230000  
O 12.8910000   13.7370000   25.1910000  
O 14.0950000   16.4550000   18.0190000  
O 11.6440000   15.2200000   17.1900000  
H 10.7280000   13.3850000   19.0540000  
H 10.7980000   12.7610000   21.6230000  
H 11.1300000   12.2070000   23.4990000  
H 14.2420000   14.9390000   22.7980000  
C 15.0700000   16.2800000   20.7110000  
C 16.3640000   15.7530000   20.6660000  
C 17.3500000   16.4080000   21.3240000  
C 17.2160000   17.6990000   21.8640000  
C 15.9140000   18.2510000   21.8890000  
C 14.8400000   17.5530000   21.2820000  
C 16.8900000   14.5140000   20.2170000  
C 18.3050000   14.5580000   20.4160000  
N 18.5540000   15.7100000   21.2390000  
O 19.0290000   12.9930000   18.8140000  
C 19.4100000   13.7670000   19.8550000  
O 20.5420000   13.9180000   20.2350000  
O 15.6530000   19.4560000   22.5030000  
O 13.5890000   18.0250000   21.4070000  
H 16.3240000   13.8290000   19.5790000  
H 18.1020000   13.1670000   18.7870000  
H 19.4490000   16.0030000   21.5780000  
H 16.3850000   19.6960000   23.1270000  
H 13.6250000   19.0320000   21.6450000  
C 18.3980000   18.3330000   22.3830000  
C 19.5000000   18.7040000   21.5650000  
C 20.5520000   19.4300000   22.0360000  
C 20.7150000   19.7550000   23.3990000  
C 19.6810000   19.2980000   24.2740000  
C 18.4830000   18.6670000   23.7690000  
C 19.6720000   18.6940000   20.1440000  
C 20.7280000   19.4100000   19.7550000  
N 21.4000000   19.7740000   20.9390000  
O 20.4320000   19.0930000   17.3980000  
C 21.2240000   19.6190000   18.3480000  
O 22.3480000   20.1010000   18.1130000  
O 19.8490000   19.4980000   25.6270000  
O 17.5270000   18.3160000   24.6440000  
H 19.1530000   18.1080000   19.4100000  
H 19.6190000   18.8620000   17.8680000  
H 22.3250000   20.1970000   20.8630000  
H 20.6280000   19.8980000   25.9060000  
H 17.7510000   18.6650000   25.5250000  
C 21.8520000   20.6700000   23.8010000  
C 21.8620000   21.9490000   23.2460000  
C 22.8730000   22.8150000   23.5490000  
C 23.9370000   22.5440000   24.3960000  
C 23.9240000   21.2570000   24.9360000  
C 22.9360000   20.3280000   24.6620000  
C 20.9100000   22.5190000   22.3970000  
C 21.3510000   23.8460000   22.2950000  
N 22.6040000   23.9840000   22.9750000  
O 19.4340000   24.6770000   21.0830000  
C 20.6370000   25.0040000   21.6640000  
O 21.1610000   26.1130000   21.5620000  
O 24.9710000   20.8590000   25.6840000  
O 23.0450000   19.0240000   25.0850000  
H 20.0430000   22.0310000   21.9460000  
H 19.1380000   23.8120000   21.4200000  
H 23.1000000   24.8870000   23.0500000  
H 25.0110000   19.8780000   25.6280000  
H 22.3450000   18.5500000   24.5900000  
H 24.6610000   23.2980000   24.6410000  
