76
101 
C 18.3630000   11.5930000   25.7790000  
C 19.3580000   11.9280000   26.8330000  
C 20.0050000   13.1120000   26.9100000  
C 19.8700000   14.0990000   25.9190000  
C 18.9500000   14.0160000   24.9200000  
C 18.0560000   12.8110000   24.8310000  
C 20.9850000   13.6200000   27.8130000  
C 21.3710000   14.8980000   27.4130000  
N 20.8110000   15.0780000   26.1570000  
O 22.4530000   15.3850000   29.4350000  
C 22.1120000   15.8960000   28.2650000  
O 22.4240000   16.9920000   27.8970000  
O 17.1760000   12.7260000   23.9660000  
O 17.9280000   10.4600000   25.6410000  
H 19.5850000   11.0820000   27.5000000  
H 21.2060000   13.0630000   28.7810000  
H 22.1800000   14.4690000   29.4740000  
H 21.0100000   15.8050000   25.4470000  
C 18.8140000   15.1970000   24.0550000  
C 19.2040000   15.2500000   22.7020000  
C 18.7860000   16.3310000   21.9180000  
C 18.2380000   17.5160000   22.4340000  
C 17.8190000   17.3960000   23.7890000  
C 18.1280000   16.2780000   24.5760000  
C 19.6300000   14.2750000   21.7300000  
C 19.6680000   14.9010000   20.4800000  
N 19.1510000   16.1980000   20.6110000  
O 20.6420000   12.9720000   19.3600000  
C 19.9650000   14.1400000   19.2400000  
O 19.5150000   14.5210000   18.1890000  
O 17.2160000   18.4650000   24.3850000  
O 17.7960000   16.4010000   25.8770000  
H 20.1040000   13.3700000   21.9440000  
H 20.5760000   12.7790000   20.3880000  
H 19.1450000   16.8100000   19.8140000  
H 17.1170000   19.2740000   23.8630000  
H 17.3150000   17.2390000   26.0240000  
C 18.0360000   18.7930000   21.6760000  
C 17.0600000   18.8050000   20.6370000  
C 16.8940000   19.8810000   19.9060000  
C 17.6200000   21.0320000   20.0530000  
C 18.4030000   21.1750000   21.2400000  
C 18.7600000   20.0190000   21.9860000  
C 16.2850000   17.7970000   19.9450000  
C 15.8090000   18.3160000   18.7600000  
N 16.2010000   19.6680000   18.7310000  
O 14.7440000   16.3160000   18.1700000  
C 14.9440000   17.6180000   17.8240000  
O 14.5820000   18.0760000   16.7510000  
O 19.0460000   22.3570000   21.4990000  
O 19.7010000   20.0480000   22.9550000  
H 16.2490000   16.7020000   20.1720000  
H 15.1890000   16.2020000   18.9760000  
H 15.9550000   20.2950000   17.9400000  
H 18.7450000   23.0160000   20.9090000  
H 19.9210000   20.9560000   23.1450000  
C 17.5490000   22.2060000   19.1330000  
C 16.3270000   22.8550000   18.7890000  
C 16.2450000   23.7080000   17.6830000  
C 17.4510000   24.2660000   17.1690000  
C 18.6960000   23.5860000   17.4530000  
C 18.7480000   22.5800000   18.4230000  
C 14.9780000   22.8490000   19.3680000  
C 14.1670000   23.5760000   18.5220000  
N 14.9650000   24.1170000   17.5000000  
O 12.1690000   23.5500000   19.8130000  
C 12.6970000   23.8540000   18.6630000  
O 12.0900000   24.4820000   17.8390000  
O 19.8400000   23.9610000   16.7820000  
O 19.9580000   21.9660000   18.6640000  
H 14.7530000   22.2770000   20.2860000  
H 12.7590000   23.0290000   20.2810000  
H 14.5860000   24.5430000   16.6330000  
H 20.4810000   23.3100000   17.0090000  
H 19.7920000   21.4840000   19.5290000  
H 17.5270000   25.1250000   16.4430000  
