76
101 
C 16.3830000   11.8010000   18.1600000  
C 15.0170000   11.4850000   18.3620000  
C 14.3100000   12.1140000   19.3480000  
C 14.7700000   13.2220000   20.0400000  
C 15.9770000   13.7950000   19.8880000  
C 16.9210000   12.9680000   19.0670000  
C 12.9870000   11.8850000   19.8530000  
C 12.6610000   12.9170000   20.7090000  
N 13.8110000   13.7050000   20.8240000  
O 10.5200000   11.9300000   21.5030000  
C 11.3910000   13.0370000   21.5250000  
O 11.2650000   13.9050000   22.3750000  
O 18.1060000   13.2640000   19.0730000  
O 17.1400000   11.1670000   17.4580000  
H 14.6280000   10.6870000   17.7500000  
H 12.2970000   11.0580000   19.6060000  
H 10.9140000   11.2450000   20.9060000  
H 14.0080000   14.4360000   21.4620000  
C 16.2770000   15.0510000   20.5790000  
C 17.0170000   15.1070000   21.7920000  
C 17.5650000   16.2030000   22.2640000  
C 17.4340000   17.4610000   21.5890000  
C 16.7630000   17.4120000   20.3500000  
C 16.2540000   16.2250000   19.8250000  
C 17.2480000   14.0660000   22.7800000  
C 17.8470000   14.6940000   23.8740000  
N 18.0290000   15.9910000   23.5040000  
O 17.9260000   12.7530000   25.3710000  
C 18.2150000   14.1000000   25.1890000  
O 18.7100000   14.7770000   26.0500000  
O 16.6390000   18.5440000   19.6280000  
O 15.7890000   16.1820000   18.5360000  
H 16.9790000   12.9790000   22.6900000  
H 17.3550000   12.3990000   24.6520000  
H 18.3540000   16.7510000   24.0860000  
H 16.9480000   19.3110000   20.2230000  
H 15.5330000   17.0800000   18.2790000  
C 17.9720000   18.7200000   22.1200000  
C 19.3110000   19.1130000   21.8610000  
C 19.8090000   20.3230000   22.2870000  
C 19.0880000   21.3210000   22.9590000  
C 17.7120000   20.8940000   23.2500000  
C 17.1780000   19.6760000   22.7190000  
C 20.3960000   18.4790000   21.1670000  
C 21.4550000   19.3890000   21.2450000  
N 21.1360000   20.5160000   21.9940000  
O 23.1620000   18.0450000   20.1960000  
C 22.8820000   19.1370000   20.9050000  
O 23.7760000   19.9080000   21.2040000  
O 16.9380000   21.8700000   23.8010000  
O 15.8460000   19.4240000   22.9770000  
H 20.3640000   17.5440000   20.6500000  
H 22.3340000   17.6240000   20.0450000  
H 21.7600000   21.2070000   22.4300000  
H 17.1830000   22.7590000   23.7200000  
H 15.4860000   20.2510000   23.4270000  
C 19.7260000   22.5700000   23.5370000  
C 20.1990000   23.5500000   22.6060000  
C 20.9160000   24.6070000   23.0350000  
C 21.1190000   24.8870000   24.3720000  
C 20.5170000   24.0060000   25.3210000  
C 19.7750000   22.8770000   24.9140000  
C 20.3250000   23.5010000   21.1760000  
C 21.0400000   24.5770000   20.7600000  
N 21.3950000   25.2820000   21.9250000  
O 20.8320000   24.2310000   18.4770000  
C 21.2270000   25.0520000   19.4250000  
O 21.7160000   26.1520000   19.1890000  
O 20.5660000   24.2280000   26.6900000  
O 19.2210000   22.0270000   25.8590000  
H 19.7110000   22.9000000   20.5150000  
H 20.4860000   23.4290000   18.9890000  
H 21.6270000   26.2670000   21.8750000  
H 20.1920000   23.3870000   27.1040000  
H 18.7690000   21.4000000   25.2050000  
H 21.6250000   25.7980000   24.7100000  
