76
101 
C 18.9460000   12.1610000   26.3990000  
C 19.3840000   11.0590000   25.4910000  
C 19.7460000   11.4410000   24.2160000  
C 19.6540000   12.7140000   23.6460000  
C 19.1820000   13.8060000   24.3830000  
C 18.7580000   13.6390000   25.7700000  
C 20.3010000   10.6090000   23.2040000  
C 20.5470000   11.3460000   22.1140000  
N 20.0890000   12.6930000   22.4000000  
O 21.1020000    9.5490000   20.6270000  
C 21.1170000   10.9050000   20.8390000  
O 21.5750000   11.6430000   19.9600000  
O 18.1610000   14.4270000   26.4210000  
O 18.6690000   11.9870000   27.5460000  
H 19.5060000   10.0840000   25.8650000  
H 20.4610000    9.5040000   23.2840000  
H 20.6780000    9.1130000   21.3400000  
H 20.0780000   13.3910000   21.7010000  
C 19.0760000   15.0520000   23.6040000  
C 18.2110000   15.1350000   22.5140000  
C 18.1690000   16.2080000   21.6490000  
C 18.7850000   17.4460000   21.9380000  
C 19.5940000   17.4470000   23.1460000  
C 19.7680000   16.2430000   23.9320000  
C 17.2140000   14.1430000   22.1330000  
C 16.5750000   14.6540000   21.0290000  
N 17.1410000   15.9050000   20.7330000  
O 14.7410000   13.2180000   21.0750000  
C 15.3720000   14.1680000   20.3550000  
O 14.9120000   14.6310000   19.3030000  
O 20.2470000   18.6120000   23.5020000  
O 20.5830000   16.2500000   25.0550000  
H 17.0160000   13.2030000   22.7030000  
H 15.2750000   12.9250000   21.7910000  
H 16.7950000   16.4570000   19.9390000  
H 20.5620000   18.9620000   22.6450000  
H 20.6140000   17.1360000   25.4590000  
C 18.5830000   18.6740000   21.1070000  
C 17.3490000   19.3520000   21.2500000  
C 17.1270000   20.5700000   20.6180000  
C 18.1070000   21.2760000   19.7810000  
C 19.2680000   20.5450000   19.5920000  
C 19.5610000   19.2950000   20.2530000  
C 16.1050000   19.0520000   21.9820000  
C 15.3050000   20.2050000   21.8730000  
N 15.9380000   21.1000000   20.9460000  
O 13.4210000   19.4800000   23.1130000  
C 14.0360000   20.5160000   22.5710000  
O 13.4750000   21.6220000   22.5510000  
O 20.2560000   21.0310000   18.7600000  
O 20.8070000   18.6680000   19.9950000  
H 15.9510000   18.1520000   22.6100000  
H 14.0210000   18.7770000   23.0580000  
H 15.7560000   22.1090000   20.8120000  
H 20.2100000   21.9990000   18.6680000  
H 21.3790000   19.2380000   19.4710000  
C 17.8050000   22.6260000   19.1580000  
C 17.6280000   23.7320000   20.0420000  
C 17.0380000   24.8820000   19.5490000  
C 16.7630000   25.1330000   18.2260000  
C 17.0370000   24.0630000   17.3480000  
C 17.5840000   22.8030000   17.7830000  
C 17.7530000   23.8550000   21.4790000  
C 17.2740000   25.1670000   21.8190000  
N 16.8760000   25.7920000   20.5670000  
O 17.6130000   24.9600000   24.1770000  
C 17.2340000   25.7070000   23.1750000  
O 16.8040000   26.8040000   23.4420000  
O 16.8320000   24.3940000   16.0590000  
O 17.7060000   21.7760000   16.8450000  
H 18.1020000   23.1200000   22.1190000  
H 17.8460000   24.0680000   23.7460000  
H 16.4340000   26.6720000   20.6190000  
H 16.9230000   23.4870000   15.6700000  
H 17.7280000   20.9390000   17.2290000  
H 16.3760000   26.0550000   17.9330000  
