76
101 
C 11.7190000   13.9650000   20.6840000  
C 12.1100000   12.5280000   20.7460000  
C 13.4720000   12.2450000   20.9950000  
C 14.3660000   13.2850000   21.3860000  
C 14.1270000   14.6510000   21.3450000  
C 12.7080000   15.0800000   21.0920000  
C 14.2670000   11.0430000   20.9870000  
C 15.5430000   11.4090000   21.3470000  
N 15.6460000   12.7730000   21.5330000  
O 16.5150000    9.2790000   21.2500000  
C 16.7340000   10.5650000   21.4310000  
O 17.8480000   11.0030000   21.6370000  
O 12.2940000   16.2020000   21.2100000  
O 10.5460000   14.2100000   20.3240000  
H 11.3790000   11.7710000   20.6480000  
H 13.8880000    9.9900000   20.7900000  
H 15.5540000    9.2550000   20.9780000  
H 16.4540000   13.3280000   21.6170000  
C 15.2850000   15.5530000   21.5470000  
C 16.2220000   15.8390000   20.5670000  
C 17.3370000   16.6270000   20.8070000  
C 17.6210000   17.2240000   22.0780000  
C 16.7410000   16.8580000   23.1540000  
C 15.6260000   16.0280000   22.8750000  
C 16.1070000   15.7310000   19.0740000  
C 17.2600000   16.3470000   18.5860000  
N 18.0230000   16.8800000   19.6450000  
O 16.7950000   15.9330000   16.2600000  
C 17.6620000   16.4870000   17.1420000  
O 18.6910000   16.9650000   16.7630000  
O 16.9100000   17.2970000   24.4250000  
O 14.8400000   15.6650000   23.9060000  
H 15.2060000   15.5030000   18.5820000  
H 16.1360000   15.4840000   16.7680000  
H 18.9740000   17.2350000   19.5570000  
H 17.2550000   18.1870000   24.3780000  
H 15.0560000   16.0550000   24.7520000  
C 18.7050000   18.2180000   22.1900000  
C 18.6720000   19.4020000   21.4140000  
C 19.7140000   20.2600000   21.5900000  
C 20.8160000   20.1620000   22.4120000  
C 20.9290000   18.9700000   23.1040000  
C 19.9260000   17.9820000   22.9460000  
C 17.6360000   20.1100000   20.6520000  
C 18.1540000   21.3840000   20.3440000  
N 19.4930000   21.4110000   20.8600000  
O 16.2760000   22.1950000   19.1280000  
C 17.4920000   22.4980000   19.6140000  
O 17.8940000   23.5730000   19.5820000  
O 21.9980000   18.7680000   23.9410000  
O 20.2170000   16.7940000   23.5870000  
H 16.6900000   19.6970000   20.3480000  
H 16.0710000   21.2520000   19.3710000  
H 20.2200000   22.1220000   20.6570000  
H 22.5050000   19.5830000   24.0060000  
H 21.0330000   16.8970000   24.1030000  
C 21.8550000   21.2640000   22.6640000  
C 21.5850000   22.2990000   23.5180000  
C 22.4770000   23.3070000   23.7760000  
C 23.7820000   23.2780000   23.2130000  
C 24.0540000   22.2130000   22.3200000  
C 23.1650000   21.1340000   22.1790000  
C 20.3430000   22.7100000   24.1500000  
C 20.5170000   23.8740000   24.8430000  
N 21.8710000   24.2840000   24.5790000  
O 18.3850000   24.0480000   25.7420000  
C 19.5420000   24.5950000   25.6640000  
O 19.8360000   25.6480000   26.2780000  
O 25.3110000   22.0330000   21.9300000  
O 23.4730000   20.1630000   21.2680000  
H 19.5570000   21.9750000   24.2950000  
H 18.5310000   23.2410000   25.2130000  
H 22.3180000   25.1660000   24.8700000  
H 25.2770000   21.2780000   21.3600000  
H 22.6490000   19.7900000   20.9820000  
H 24.5610000   24.0270000   23.3370000  
