76
101 
C 10.4070000   16.8110000   20.7100000  
C 10.1800000   15.7760000   21.7490000  
C 11.2050000   15.4240000   22.5260000  
C 12.5300000   15.9250000   22.4080000  
C 12.9110000   16.9420000   21.5830000  
C 11.8610000   17.5180000   20.6890000  
C 11.2240000   14.5790000   23.6870000  
C 12.4990000   14.6010000   24.2250000  
N 13.2790000   15.3980000   23.3940000  
O 12.0260000   13.4610000   26.1740000  
C 12.9790000   14.0470000   25.5170000  
O 14.1140000   14.2040000   25.8450000  
O 11.9760000   18.5010000   20.0060000  
O  9.5230000   17.1010000   19.9170000  
H  9.0850000   15.4780000   21.9320000  
H 10.3670000   14.0500000   24.0290000  
H 11.2530000   13.7160000   25.6110000  
H 14.2720000   15.6650000   23.5910000  
C 14.3550000   17.3630000   21.7700000  
C 15.4250000   16.5150000   21.4710000  
C 16.7420000   16.9180000   21.4840000  
C 17.0780000   18.2600000   21.7200000  
C 16.0360000   19.1340000   22.1790000  
C 14.7270000   18.6340000   22.2070000  
C 15.3940000   15.1180000   21.1220000  
C 16.7170000   14.7380000   20.9620000  
N 17.5740000   15.8760000   21.1470000  
O 15.9930000   12.7560000   20.0810000  
C 17.0740000   13.4360000   20.4770000  
O 18.2060000   12.9520000   20.3920000  
O 16.2820000   20.4140000   22.5280000  
O 13.7380000   19.5240000   22.4420000  
H 14.4980000   14.4630000   21.0020000  
H 15.2480000   13.3260000   20.1660000  
H 18.4980000   15.9400000   20.8430000  
H 17.2290000   20.5020000   22.2990000  
H 14.1360000   20.4150000   22.5200000  
C 18.5040000   18.7140000   21.7250000  
C 19.2590000   18.7590000   20.5260000  
C 20.5640000   19.0600000   20.5690000  
C 21.3580000   19.2560000   21.6950000  
C 20.6360000   19.1340000   22.9290000  
C 19.2150000   18.8320000   22.9310000  
C 19.0110000   18.5530000   19.1290000  
C 20.1400000   18.8240000   18.3200000  
N 21.1330000   19.0140000   19.2650000  
O 18.9570000   18.5310000   16.3170000  
C 20.1350000   18.9010000   16.8480000  
O 21.0360000   19.2850000   16.2400000  
O 21.3680000   19.2390000   24.0560000  
O 18.6640000   18.5220000   24.1200000  
H 18.0880000   18.2790000   18.7680000  
H 18.4250000   18.3100000   17.0330000  
H 22.0800000   19.1960000   19.0050000  
H 22.2210000   19.6510000   23.9030000  
H 19.4110000   18.4350000   24.7730000  
C 22.8050000   19.5210000   21.6640000  
C 23.2440000   20.6790000   22.2540000  
C 24.5760000   20.9280000   22.4360000  
C 25.6220000   20.1480000   21.9380000  
C 25.1520000   18.9800000   21.2740000  
C 23.8110000   18.6430000   21.1260000  
C 22.5090000   21.8030000   22.7810000  
C 23.5080000   22.7140000   23.2590000  
N 24.7280000   22.1220000   23.1690000  
O 22.0070000   24.5280000   23.7920000  
C 23.2540000   24.0920000   23.6540000  
O 24.1940000   24.7300000   24.0520000  
O 26.0520000   18.0850000   20.8590000  
O 23.5220000   17.4550000   20.6310000  
H 21.4720000   22.0030000   22.7210000  
H 21.3860000   23.7960000   23.5550000  
H 25.5840000   22.4300000   23.5830000  
H 25.5610000   17.2380000   20.8620000  
H 22.5180000   17.4740000   20.6680000  
H 26.6600000   20.5510000   21.8980000  
