76
101 
C 13.1780000   18.0720000   27.3970000  
C 11.8560000   17.6750000   26.7630000  
C 11.8680000   16.9430000   25.5860000  
C 13.0510000   16.8810000   24.7890000  
C 14.2700000   17.4150000   25.2160000  
C 14.4600000   18.0320000   26.5070000  
C 10.8560000   16.2390000   24.8470000  
C 11.4200000   15.6810000   23.6920000  
N 12.7950000   16.1380000   23.6430000  
O  9.5680000   14.3600000   22.9590000  
C 10.8320000   14.6470000   22.7340000  
O 11.5080000   14.1590000   21.8210000  
O 15.5730000   18.3690000   26.8880000  
O 13.1790000   18.5540000   28.5170000  
H 11.0000000   17.6100000   27.4320000  
H  9.8520000   16.2110000   25.1980000  
H  9.3400000   14.9690000   23.7050000  
H 13.4910000   15.8890000   22.9040000  
C 15.3090000   17.3130000   24.1620000  
C 15.1600000   18.1440000   23.0520000  
C 16.0850000   18.1680000   22.0450000  
C 17.2660000   17.3790000   22.1170000  
C 17.3840000   16.5140000   23.2290000  
C 16.4050000   16.4450000   24.2980000  
C 14.2810000   19.2890000   22.8020000  
C 14.9360000   20.1070000   21.8680000  
N 15.9910000   19.3500000   21.2970000  
O 13.6130000   22.0420000   22.1920000  
C 14.4980000   21.4630000   21.4180000  
O 15.0200000   22.0990000   20.5090000  
O 18.4750000   15.7560000   23.3290000  
O 16.4610000   15.5930000   25.3350000  
H 13.4010000   19.6010000   23.3620000  
H 13.4850000   21.5390000   23.0490000  
H 16.5740000   19.5840000   20.5000000  
H 18.7380000   15.8480000   22.3690000  
H 17.4480000   15.2880000   25.3600000  
C 18.4300000   17.5190000   21.1460000  
C 19.2180000   18.7330000   21.1430000  
C 20.3280000   18.8150000   20.3940000  
C 20.6440000   17.9610000   19.3310000  
C 19.8660000   16.7310000   19.1710000  
C 18.8310000   16.5430000   20.1340000  
C 19.2250000   19.9150000   21.9590000  
C 20.4390000   20.5540000   21.6970000  
N 21.0800000   19.9330000   20.6080000  
O 20.1870000   22.2260000   23.3350000  
C 20.8240000   21.8480000   22.2400000  
O 21.5900000   22.6020000   21.6550000  
O 20.0550000   15.8770000   18.1140000  
O 18.2330000   15.3040000   20.2210000  
H 18.6160000   20.2200000   22.7390000  
H 19.7280000   21.5140000   23.6980000  
H 21.9160000   20.2510000   20.1760000  
H 20.8640000   16.0490000   17.5520000  
H 18.6280000   14.8170000   19.4180000  
C 21.7700000   18.2230000   18.3990000  
C 23.1560000   18.1080000   18.7230000  
C 24.1370000   18.2230000   17.7620000  
C 23.8990000   18.4740000   16.4400000  
C 22.5650000   18.4690000   16.0260000  
C 21.5100000   18.4120000   17.0150000  
C 23.7700000   17.7740000   19.9630000  
C 25.0980000   17.8490000   19.7330000  
N 25.3460000   18.0150000   18.3300000  
O 25.6980000   17.5670000   21.9980000  
C 26.1760000   17.7450000   20.7440000  
O 27.3740000   17.7920000   20.5540000  
O 22.2610000   18.4930000   14.7330000  
O 20.2230000   18.5110000   16.5620000  
H 23.3550000   17.7340000   21.0040000  
H 24.7220000   17.6370000   21.9100000  
H 26.2430000   18.0190000   17.8560000  
H 21.2850000   18.4630000   14.7540000  
H 19.6840000   18.3740000   17.3050000  
H 24.7210000   18.4550000   15.6560000  
