76
101 
C 17.6710000   12.0420000   26.3860000  
C 18.7990000   12.2880000   27.2550000  
C 19.6600000   13.3590000   27.1470000  
C 19.3890000   14.3600000   26.2660000  
C 18.3030000   14.3740000   25.4020000  
C 17.3820000   13.1800000   25.3260000  
C 20.8040000   13.6720000   27.8230000  
C 21.2870000   14.9320000   27.3940000  
N 20.3510000   15.3680000   26.4600000  
O 23.4170000   14.7210000   28.4360000  
C 22.5740000   15.5520000   27.7470000  
O 22.8640000   16.7120000   27.4060000  
O 16.3360000   13.1170000   24.6300000  
O 17.0500000   11.0000000   26.4630000  
H 19.0670000   11.4900000   27.9570000  
H 21.2270000   13.0500000   28.6420000  
H 23.1360000   13.8170000   28.3820000  
H 20.3630000   16.2740000   26.0960000  
C 18.1610000   15.5540000   24.5290000  
C 19.1170000   15.9460000   23.6360000  
C 18.9530000   16.9310000   22.7010000  
C 17.7880000   17.7290000   22.5690000  
C 16.7630000   17.4530000   23.5460000  
C 16.9500000   16.3050000   24.4190000  
C 20.2570000   15.1840000   23.2030000  
C 20.7640000   15.8580000   22.0910000  
N 19.9440000   16.9700000   21.7890000  
O 22.6630000   14.4990000   21.6520000  
C 21.9540000   15.5550000   21.2590000  
O 22.3070000   16.2630000   20.3880000  
O 15.5330000   18.1600000   23.6590000  
O 15.8980000   15.9310000   25.1970000  
H 20.5360000   14.2150000   23.6150000  
H 22.2040000   14.4320000   22.4660000  
H 19.8230000   17.5290000   20.9120000  
H 15.6840000   18.9850000   23.1910000  
H 15.1090000   16.4810000   25.0070000  
C 17.6590000   18.8380000   21.6150000  
C 17.5190000   18.5960000   20.2490000  
C 17.5220000   19.6520000   19.3460000  
C 17.5060000   21.0080000   19.7350000  
C 17.5820000   21.2770000   21.0960000  
C 17.6960000   20.1800000   22.0040000  
C 17.3140000   17.3890000   19.4140000  
C 17.3210000   17.8030000   18.0740000  
N 17.4260000   19.2190000   18.0320000  
O 17.1770000   15.5880000   17.0510000  
C 17.2340000   16.9390000   16.8350000  
O 17.2340000   17.3640000   15.6730000  
O 17.7570000   22.5860000   21.5870000  
O 17.9030000   20.5230000   23.3140000  
H 17.0790000   16.3740000   19.7960000  
H 17.1490000   15.5440000   18.0130000  
H 17.3250000   19.8470000   17.2530000  
H 16.9460000   23.0940000   21.5010000  
H 17.8910000   21.4950000   23.3550000  
C 17.2780000   22.0590000   18.7210000  
C 16.0650000   22.2390000   18.0890000  
C 15.8610000   23.3210000   17.2440000  
C 16.8760000   24.2380000   16.9080000  
C 18.1230000   24.0760000   17.5560000  
C 18.3020000   22.9770000   18.4540000  
C 14.8130000   21.6140000   18.2110000  
C 13.8480000   22.3650000   17.5610000  
N 14.4910000   23.3690000   16.9300000  
O 11.8990000   21.2710000   18.3140000  
C 12.4240000   22.1430000   17.4190000  
O 11.7510000   22.7530000   16.6270000  
O 19.0960000   25.0250000   17.3560000  
O 19.5110000   22.7090000   19.0340000  
H 14.6850000   20.6740000   18.7330000  
H 12.5270000   21.2340000   18.9790000  
H 14.0630000   23.9290000   16.2140000  
H 19.8480000   24.8690000   18.0040000  
H 19.5450000   21.7810000   19.4850000  
H 16.6320000   25.0910000   16.3010000  
