76
101 
C 17.4080000   10.4680000   20.7950000  
C 16.0910000   10.2440000   20.1950000  
C 15.2650000   11.3080000   19.8590000  
C 15.6110000   12.6620000   20.1630000  
C 16.7940000   13.0770000   20.7720000  
C 17.7610000   12.0230000   21.1640000  
C 14.0610000   11.3700000   19.1420000  
C 13.6670000   12.7310000   19.0540000  
N 14.6220000   13.4760000   19.7390000  
O 11.7800000   12.6100000   17.5220000  
C 12.6050000   13.3540000   18.2250000  
O 12.6350000   14.5910000   18.1800000  
O 18.7770000   12.2930000   21.7580000  
O 18.2710000    9.6730000   20.9100000  
H 15.8380000    9.3120000   19.8670000  
H 13.6230000   10.5640000   18.5760000  
H 11.7120000   11.8040000   18.0630000  
H 14.6370000   14.4850000   19.8650000  
C 17.1440000   14.5030000   20.8950000  
C 16.6340000   15.3100000   21.8440000  
C 16.8830000   16.6240000   21.9110000  
C 17.7880000   17.2790000   21.1270000  
C 18.3030000   16.4910000   20.0850000  
C 18.0350000   15.1160000   19.9840000  
C 15.8180000   14.9360000   22.9880000  
C 15.6020000   16.1680000   23.6220000  
N 16.1870000   17.2300000   22.8820000  
O 14.0600000   15.3570000   25.2080000  
C 14.6080000   16.4540000   24.7010000  
O 14.2280000   17.5350000   25.0100000  
O 19.3460000   17.0220000   19.2980000  
O 18.6040000   14.2930000   19.0500000  
H 15.3730000   13.9340000   23.1390000  
H 14.4430000   14.5640000   24.7450000  
H 16.2150000   18.1650000   23.0690000  
H 19.8820000   17.6900000   19.8920000  
H 19.1260000   14.8050000   18.4040000  
C 18.2020000   18.7150000   21.3540000  
C 18.6830000   19.1740000   22.6310000  
C 18.9750000   20.5080000   22.8470000  
C 18.8740000   21.5710000   21.9210000  
C 18.2500000   21.1500000   20.6670000  
C 17.9510000   19.7710000   20.3960000  
C 19.0690000   18.5000000   23.8550000  
C 19.6510000   19.4280000   24.6840000  
N 19.6440000   20.6300000   24.0320000  
O 20.1850000   17.8930000   26.2300000  
C 20.3420000   19.1810000   25.8990000  
O 21.0590000   19.9540000   26.4880000  
O 17.9670000   22.0620000   19.6720000  
O 17.3980000   19.5020000   19.1500000  
H 19.0170000   17.4150000   23.9460000  
H 19.5710000   17.6010000   25.6020000  
H 19.9070000   21.4760000   24.5120000  
H 18.6000000   22.8650000   19.7630000  
H 17.1190000   20.3020000   18.6480000  
C 19.2660000   22.9830000   22.0870000  
C 20.6150000   23.4280000   22.0610000  
C 20.9010000   24.7430000   22.2680000  
C 19.9050000   25.7320000   22.3890000  
C 18.5900000   25.3160000   22.3930000  
C 18.2830000   23.9500000   22.2240000  
C 21.8970000   22.7240000   21.9420000  
C 22.8890000   23.6910000   22.0870000  
N 22.2970000   24.9410000   22.1980000  
O 24.6680000   22.1940000   21.9650000  
C 24.3110000   23.4870000   22.0420000  
O 25.1900000   24.3270000   22.1160000  
O 17.5680000   26.2520000   22.5110000  
O 16.9600000   23.6370000   22.1210000  
H 22.0870000   21.6950000   21.8260000  
H 24.0310000   21.6720000   22.4590000  
H 22.8060000   25.8530000   22.2620000  
H 16.8910000   25.8960000   23.0790000  
H 16.9010000   22.7330000   21.7420000  
H 20.1980000   26.7680000   22.5240000  
