76
101 
C 11.7240000   14.3410000   23.2020000  
C 11.4170000   13.4320000   22.0280000  
C 12.2960000   13.4380000   21.0010000  
C 13.4770000   14.2240000   20.9940000  
C 13.9070000   15.0530000   22.0470000  
C 13.0340000   15.2160000   23.2080000  
C 12.2020000   12.8160000   19.7260000  
C 13.4010000   13.0320000   19.0160000  
N 14.1290000   13.9670000   19.8020000  
O 13.0950000   11.2450000   17.4540000  
C 13.9240000   12.2770000   17.8020000  
O 14.9900000   12.4750000   17.2760000  
O 13.2070000   15.9960000   24.1340000  
O 10.9080000   14.3910000   24.1120000  
H 10.5060000   12.9020000   21.9190000  
H 11.3510000   12.1470000   19.4500000  
H 12.2990000   11.5150000   17.9670000  
H 14.8530000   14.5670000   19.4120000  
C 15.2770000   15.6550000   21.8840000  
C 15.4350000   16.7750000   21.0370000  
C 16.5500000   17.5170000   21.0750000  
C 17.7330000   17.1900000   21.8060000  
C 17.5430000   16.1440000   22.7560000  
C 16.3320000   15.4060000   22.8070000  
C 14.5050000   17.3170000   20.0220000  
C 15.2420000   18.2570000   19.3420000  
N 16.4470000   18.4920000   20.0250000  
O 13.6470000   18.4840000   17.6550000  
C 14.7890000   18.9400000   18.1010000  
O 15.3960000   19.8140000   17.5460000  
O 18.6190000   15.7990000   23.6530000  
O 16.2810000   14.3720000   23.6870000  
H 13.4910000   17.0160000   19.8210000  
H 13.3670000   17.7010000   18.2510000  
H 17.1380000   19.1490000   19.7780000  
H 19.3390000   16.4220000   23.3370000  
H 17.1660000   14.2790000   24.0490000  
C 18.8640000   18.0730000   21.8070000  
C 18.7560000   19.4100000   22.2070000  
C 19.8670000   20.1990000   22.0310000  
C 21.1730000   19.7950000   21.6670000  
C 21.3430000   18.4450000   21.4840000  
C 20.2350000   17.6140000   21.4780000  
C 17.7190000   20.3380000   22.5800000  
C 18.2900000   21.5800000   22.8590000  
N 19.6490000   21.5260000   22.4470000  
O 16.3330000   22.6750000   23.6530000  
C 17.6130000   22.7900000   23.3940000  
O 18.2370000   23.8500000   23.4400000  
O 22.6060000   18.0250000   21.1690000  
O 20.4920000   16.2530000   21.1350000  
H 16.5790000   20.1370000   22.6260000  
H 16.2260000   21.7000000   23.4630000  
H 20.2810000   22.3120000   22.6180000  
H 23.0610000   18.8550000   21.2400000  
H 21.4130000   16.0960000   20.9900000  
C 22.3730000   20.6650000   21.6330000  
C 22.9670000   20.9760000   22.8340000  
C 24.1470000   21.7200000   22.8720000  
C 24.7440000   22.1380000   21.6780000  
C 24.1430000   21.8480000   20.4150000  
C 22.9560000   21.0290000   20.3750000  
C 22.6380000   20.6050000   24.1690000  
C 23.6540000   21.1440000   24.9590000  
N 24.6180000   21.7210000   24.1580000  
O 22.6810000   20.6260000   27.0360000  
C 23.7950000   21.1260000   26.4550000  
O 24.6270000   21.5850000   27.2330000  
O 24.7900000   22.0630000   19.2370000  
O 22.3450000   20.7480000   19.1570000  
H 21.7660000   20.0120000   24.5080000  
H 22.1800000   20.2800000   26.2750000  
H 25.3330000   22.2730000   24.5530000  
H 24.0600000   21.7260000   18.6600000  
H 21.5400000   20.2850000   19.3240000  
H 25.7110000   22.6590000   21.6850000  
