76
101 
C 16.6760000   10.8060000   24.0230000  
C 17.2080000   10.1560000   22.8090000  
C 17.9980000   10.8720000   21.9270000  
C 18.1640000   12.2460000   22.0680000  
C 17.6610000   12.9590000   23.0930000  
C 16.8130000   12.3530000   24.1790000  
C 18.7460000   10.4350000   20.7860000  
C 19.3940000   11.5520000   20.2900000  
N 18.9970000   12.7000000   21.0840000  
O 20.8810000   10.6090000   18.5790000  
C 20.3340000   11.6850000   19.1620000  
O 20.7980000   12.7550000   18.8620000  
O 16.2060000   12.9930000   25.0330000  
O 16.0800000   10.2350000   24.9090000  
H 16.8360000    9.1520000   22.5650000  
H 18.7010000    9.4090000   20.3670000  
H 20.3700000    9.8590000   18.9270000  
H 19.2250000   13.7030000   21.0310000  
C 17.7870000   14.3260000   22.8590000  
C 17.1660000   15.0280000   21.7550000  
C 17.3260000   16.3820000   21.6310000  
C 17.9940000   17.2420000   22.5310000  
C 18.7090000   16.5660000   23.5640000  
C 18.5130000   15.1420000   23.7720000  
C 16.5120000   14.5400000   20.5480000  
C 16.3040000   15.7240000   19.7830000  
N 16.7030000   16.8250000   20.5450000  
O 15.1910000   14.6580000   17.8820000  
C 15.6600000   15.7810000   18.4720000  
O 15.5680000   16.8870000   17.9240000  
O 19.4920000   17.2880000   24.4530000  
O 19.2740000   14.6270000   24.7620000  
H 16.3270000   13.4990000   20.3060000  
H 15.4090000   13.9760000   18.5160000  
H 16.7880000   17.7750000   20.2070000  
H 19.2900000   18.2010000   24.2360000  
H 19.8740000   15.4280000   24.9360000  
C 18.0870000   18.6900000   22.2690000  
C 17.0100000   19.5140000   22.2180000  
C 17.0970000   20.8020000   21.7340000  
C 18.3110000   21.4930000   21.2900000  
C 19.3770000   20.6160000   21.4110000  
C 19.2660000   19.2230000   21.8250000  
C 15.6130000   19.3520000   22.5510000  
C 14.9220000   20.4880000   22.1100000  
N 15.8580000   21.4330000   21.8190000  
O 12.8160000   19.6550000   22.6390000  
C 13.5220000   20.7270000   22.1530000  
O 13.0350000   21.7240000   21.6850000  
O 20.6520000   21.0510000   20.9700000  
O 20.4070000   18.4950000   21.8950000  
H 15.1240000   18.4230000   22.8560000  
H 13.4490000   19.0590000   23.0490000  
H 15.6360000   22.4130000   21.7470000  
H 20.6810000   21.9900000   21.0200000  
H 21.1900000   19.0500000   21.6670000  
C 18.5230000   22.8920000   20.9340000  
C 19.3710000   23.7590000   21.6490000  
C 19.5260000   25.0670000   21.3530000  
C 18.8700000   25.6730000   20.3040000  
C 17.9870000   24.8930000   19.5040000  
C 17.8200000   23.5010000   19.8240000  
C 20.1790000   23.5410000   22.8310000  
C 20.8030000   24.7280000   23.1610000  
N 20.4440000   25.6550000   22.1940000  
O 21.9750000   24.0190000   25.1260000  
C 21.7240000   25.0350000   24.3000000  
O 22.1690000   26.1110000   24.5370000  
O 17.2790000   25.4810000   18.5560000  
O 16.9450000   22.7070000   19.0460000  
H 20.2820000   22.6130000   23.3330000  
H 22.0130000   23.2600000   24.5400000  
H 20.6460000   26.6460000   22.3100000  
H 16.5550000   24.8650000   18.3150000  
H 17.0570000   21.7380000   19.3990000  
H 18.9200000   26.7530000   20.0850000  
