76
101 
C 11.3570000   14.0720000   22.3970000  
C 11.6420000   13.0530000   21.4140000  
C 12.8360000   13.0410000   20.8060000  
C 13.8150000   13.9560000   20.9610000  
C 13.8350000   14.9690000   21.8710000  
C 12.5170000   15.2030000   22.5780000  
C 13.3840000   12.1410000   19.8390000  
C 14.6740000   12.4290000   19.4550000  
N 14.9500000   13.5640000   20.2290000  
O 15.0410000   10.4880000   17.9770000  
C 15.5510000   11.6040000   18.5830000  
O 16.6920000   11.8920000   18.3660000  
O 12.2430000   16.2180000   23.2080000  
O 10.3470000   14.0740000   23.1220000  
H 10.9170000   12.2050000   21.2220000  
H 12.8250000   11.2630000   19.4570000  
H 14.2080000   10.3660000   18.3300000  
H 15.7510000   14.1590000   20.1460000  
C 15.0540000   15.7540000   21.9060000  
C 15.3120000   16.8260000   21.0800000  
C 16.5590000   17.3910000   21.0530000  
C 17.5260000   17.1640000   22.0740000  
C 17.2680000   16.1480000   22.9810000  
C 16.0390000   15.4620000   22.8730000  
C 14.6610000   17.1470000   19.8650000  
C 15.5660000   17.9470000   19.1650000  
N 16.7030000   18.1540000   19.9260000  
O 14.0310000   18.2810000   17.4120000  
C 15.2880000   18.5480000   17.8930000  
O 15.9900000   19.3580000   17.3220000  
O 18.2020000   15.7740000   23.9130000  
O 15.8330000   14.4560000   23.7920000  
H 13.6250000   16.9190000   19.6710000  
H 13.6650000   17.5180000   17.9710000  
H 17.4430000   18.7740000   19.7100000  
H 19.1020000   16.0990000   23.6430000  
H 16.6230000   14.3610000   24.3210000  
C 18.7610000   17.9420000   22.0930000  
C 18.6950000   19.3360000   22.1740000  
C 19.8470000   20.0640000   22.1610000  
C 21.1710000   19.5530000   22.1220000  
C 21.2390000   18.1420000   22.1130000  
C 20.0860000   17.3800000   22.0330000  
C 17.6210000   20.3090000   22.2520000  
C 18.2780000   21.5550000   22.1710000  
N 19.6230000   21.4110000   22.0550000  
O 16.1810000   22.5970000   22.3250000  
C 17.5200000   22.8200000   22.1460000  
O 17.9350000   23.9730000   22.0450000  
O 22.4400000   17.4820000   22.1010000  
O 20.1610000   16.0220000   22.0000000  
H 16.4910000   20.0970000   22.4240000  
H 16.0900000   21.6130000   22.4650000  
H 20.4020000   22.0950000   22.0310000  
H 23.1220000   18.2090000   22.0000000  
H 21.0790000   15.8590000   22.2230000  
C 22.4090000   20.4030000   22.1160000  
C 22.7220000   21.3900000   23.1260000  
C 23.8970000   22.1380000   23.1200000  
C 24.7740000   22.0640000   22.0220000  
C 24.4690000   21.1250000   20.9670000  
C 23.2530000   20.3600000   20.9810000  
C 22.0480000   21.7700000   24.3440000  
C 22.7500000   22.7870000   24.9480000  
N 23.8960000   22.9690000   24.2080000  
O 21.0920000   23.1970000   26.6010000  
C 22.2700000   23.5580000   26.1480000  
O 22.9370000   24.3580000   26.7510000  
O 25.2590000   21.1080000   19.8650000  
O 22.9310000   19.6770000   19.8540000  
H 21.0070000   21.4250000   24.6850000  
H 20.8050000   22.5980000   25.9100000  
H 24.6850000   23.5190000   24.4700000  
H 25.0000000   20.3570000   19.2840000  
H 22.0540000   19.1890000   20.0410000  
H 25.5540000   22.8020000   21.9090000  
