76
101 
C 20.9070000   15.8230000   28.1470000  
C 19.8340000   15.6010000   29.1140000  
C 18.5780000   15.9220000   28.7450000  
C 18.1990000   16.3170000   27.4870000  
C 19.0470000   16.5820000   26.4570000  
C 20.4920000   16.3400000   26.6650000  
C 17.3170000   15.7580000   29.4800000  
C 16.2070000   15.9520000   28.5990000  
N 16.7870000   16.3530000   27.3390000  
O 14.4320000   15.2890000   30.1260000  
C 14.7570000   15.7830000   28.9050000  
O 13.8480000   16.1220000   28.0880000  
O 21.3150000   16.4440000   25.7950000  
O 22.0630000   15.5330000   28.2830000  
H 20.1160000   15.1920000   30.0770000  
H 17.2850000   15.5540000   30.4820000  
H 15.2190000   15.2920000   30.6310000  
H 16.3010000   16.5110000   26.5160000  
C 18.4330000   16.9690000   25.2140000  
C 18.2100000   18.3010000   24.8530000  
C 17.9760000   18.6320000   23.5570000  
C 17.9270000   17.7220000   22.4450000  
C 18.0420000   16.3600000   22.8420000  
C 18.2860000   16.0140000   24.1850000  
C 18.1850000   19.5390000   25.6070000  
C 17.8600000   20.5910000   24.6930000  
N 17.8240000   20.0260000   23.4080000  
O 17.8220000   22.2870000   26.2590000  
C 17.6360000   22.0210000   24.9810000  
O 17.3400000   22.8750000   24.1800000  
O 17.9030000   15.4260000   21.8920000  
O 18.4340000   14.6800000   24.4390000  
H 18.1770000   19.6630000   26.6900000  
H 17.6300000   21.4490000   26.7840000  
H 17.5550000   20.5080000   22.6190000  
H 17.6370000   15.8330000   21.0530000  
H 18.4440000   14.1920000   23.5980000  
C 17.6790000   18.1260000   21.0290000  
C 18.6580000   18.7930000   20.3400000  
C 18.5920000   19.1050000   19.0240000  
C 17.4260000   18.8050000   18.2750000  
C 16.4130000   18.1170000   18.9120000  
C 16.5690000   17.7190000   20.2700000  
C 19.9460000   19.3110000   20.6910000  
C 20.5340000   19.9790000   19.5480000  
N 19.6810000   19.7580000   18.4910000  
O 22.4050000   20.8210000   20.6550000  
C 21.7050000   20.8810000   19.5520000  
O 22.0970000   21.4910000   18.5310000  
O 15.2920000   17.8140000   18.1980000  
O 15.6120000   16.9090000   20.8920000  
H 20.1750000   19.5420000   21.7190000  
H 21.8300000   20.3330000   21.2210000  
H 19.7860000   20.0780000   17.5010000  
H 15.4690000   17.9270000   17.1960000  
H 14.9570000   16.8240000   20.2610000  
C 17.2270000   19.3240000   16.8780000  
C 17.3700000   18.4230000   15.8140000  
C 16.9060000   18.7820000   14.5770000  
C 16.4780000   20.1210000   14.2790000  
C 16.6080000   21.0370000   15.2800000  
C 17.0070000   20.6760000   16.5520000  
C 17.6310000   16.9910000   15.8120000  
C 17.4640000   16.5460000   14.4830000  
N 17.0640000   17.6540000   13.7470000  
O 18.1690000   14.2560000   14.7520000  
C 17.7270000   15.1990000   13.8730000  
O 17.6660000   14.9790000   12.6720000  
O 16.3070000   22.3490000   15.0210000  
O 17.1360000   21.5530000   17.5780000  
H 18.2940000   16.4340000   16.5480000  
H 18.1260000   14.7200000   15.5980000  
H 16.7220000   17.7120000   12.7920000  
H 16.6530000   22.9140000   15.6810000  
H 17.4670000   21.2750000   18.4360000  
H 16.1070000   20.4390000   13.3120000  
