76
101 
C 11.4330000   14.0920000   21.5970000  
C 11.9000000   12.7860000   21.0360000  
C 13.2740000   12.5870000   20.8560000  
C 14.2540000   13.5310000   21.2120000  
C 13.9600000   14.7500000   21.6500000  
C 12.5480000   15.1330000   21.8790000  
C 13.9550000   11.3650000   20.4010000  
C 15.2790000   11.7290000   20.3710000  
N 15.4410000   13.0630000   20.8460000  
O 15.8610000    9.6290000   19.3350000  
C 16.2940000   10.8360000   19.7180000  
O 17.4720000   11.1150000   19.5260000  
O 12.1870000   16.1900000   22.3460000  
O 10.2410000   14.2810000   21.7870000  
H 11.0830000   12.1430000   20.6760000  
H 13.4700000   10.4500000   19.9780000  
H 15.0310000    9.6360000   19.6950000  
H 16.3240000   13.5450000   20.9930000  
C 15.0960000   15.7170000   21.7910000  
C 15.7130000   16.3660000   20.7470000  
C 16.8570000   17.1170000   20.9380000  
C 17.4020000   17.3840000   22.1680000  
C 16.7930000   16.6990000   23.2820000  
C 15.6780000   15.8530000   23.0630000  
C 15.5160000   16.2630000   19.3470000  
C 16.5350000   16.9890000   18.7590000  
N 17.4020000   17.5390000   19.7560000  
O 15.8770000   16.5020000   16.5300000  
C 16.7680000   17.1410000   17.3210000  
O 17.5660000   17.9810000   16.8840000  
O 17.2710000   16.7120000   24.5830000  
O 15.0460000   15.2220000   24.0430000  
H 14.6730000   15.8080000   18.9050000  
H 15.4370000   16.0180000   17.2040000  
H 18.2210000   18.1600000   19.6070000  
H 18.2080000   16.9430000   24.6140000  
H 15.4070000   15.2100000   24.8760000  
C 18.5420000   18.2730000   22.2670000  
C 18.5080000   19.6110000   21.9090000  
C 19.6090000   20.3590000   22.0380000  
C 20.8930000   19.8940000   22.4630000  
C 20.9470000   18.5260000   22.7240000  
C 19.8360000   17.7220000   22.6390000  
C 17.4840000   20.5370000   21.4690000  
C 18.1150000   21.7270000   21.2130000  
N 19.4910000   21.6140000   21.5440000  
O 16.1600000   22.7070000   20.2160000  
C 17.4570000   22.8970000   20.5250000  
O 17.9820000   23.9440000   20.3850000  
O 22.0990000   17.9560000   22.9850000  
O 19.9410000   16.3750000   22.9540000  
H 16.4190000   20.2870000   21.2680000  
H 15.9300000   21.7420000   20.3930000  
H 20.2500000   22.2090000   21.2180000  
H 22.6520000   18.6720000   23.3900000  
H 20.8080000   16.0320000   23.1840000  
C 22.0960000   20.8300000   22.4720000  
C 22.1820000   21.8310000   23.4650000  
C 23.2730000   22.6850000   23.4630000  
C 24.2130000   22.6790000   22.4280000  
C 24.0670000   21.7280000   21.3800000  
C 23.1540000   20.7010000   21.5190000  
C 21.3030000   22.2380000   24.5170000  
C 21.8830000   23.3760000   25.1580000  
N 23.1260000   23.5760000   24.5190000  
O 20.2240000   23.4590000   26.9090000  
C 21.3570000   24.0830000   26.3350000  
O 21.8160000   25.1380000   26.7540000  
O 24.8020000   21.8360000   20.2290000  
O 22.9330000   19.8160000   20.5860000  
H 20.3040000   21.7830000   24.6730000  
H 20.1340000   22.6180000   26.4610000  
H 23.8010000   24.3480000   24.5960000  
H 24.6630000   21.1110000   19.5970000  
H 22.4290000   19.0950000   20.9810000  
H 24.8950000   23.4970000   22.3330000  
