76
101 
C 10.6470000   15.4010000   22.5600000  
C  9.9450000   16.6830000   22.6160000  
C 10.6170000   17.8670000   22.4420000  
C 11.9610000   17.9170000   22.1130000  
C 12.7850000   16.7990000   21.9910000  
C 12.1940000   15.4350000   22.2230000  
C 10.2450000   19.2550000   22.6160000  
C 11.3470000   20.0280000   22.4870000  
N 12.4020000   19.1400000   22.2340000  
O 10.2810000   22.0750000   23.1100000  
C 11.4880000   21.4520000   22.8800000  
O 12.4900000   22.1660000   22.7870000  
O 12.7370000   14.3270000   22.1570000  
O 10.0200000   14.3980000   22.8090000  
H  8.9190000   16.6750000   22.9020000  
H  9.2310000   19.5400000   22.8980000  
H  9.6520000   21.2880000   22.8810000  
H 13.3820000   19.4400000   22.1540000  
C 14.2400000   16.9920000   21.6480000  
C 15.1220000   17.1350000   22.7370000  
C 16.4310000   17.5190000   22.5160000  
C 17.0280000   17.7000000   21.2820000  
C 16.0840000   17.5410000   20.1620000  
C 14.7440000   17.2250000   20.3350000  
C 14.8700000   17.2440000   24.1100000  
C 16.0650000   17.5780000   24.7520000  
N 16.9830000   17.8000000   23.7390000  
O 15.2060000   17.6880000   26.8750000  
C 16.3100000   17.8030000   26.1750000  
O 17.3640000   18.1380000   26.6850000  
O 16.5260000   17.9630000   18.9640000  
O 13.9190000   17.0850000   19.2920000  
H 13.9940000   16.9410000   24.6210000  
H 14.5670000   17.3790000   26.2590000  
H 17.9650000   17.8800000   23.9100000  
H 17.4710000   18.3940000   19.0410000  
H 14.2920000   17.4170000   18.4760000  
C 18.4290000   18.2390000   21.1260000  
C 19.5800000   17.5230000   21.5570000  
C 20.8410000   18.0450000   21.4270000  
C 21.2030000   19.1430000   20.6990000  
C 20.0960000   19.9090000   20.2850000  
C 18.7410000   19.4580000   20.4220000  
C 19.6510000   16.2370000   22.3250000  
C 20.9920000   16.1050000   22.5640000  
N 21.7460000   17.2350000   22.0320000  
O 20.9750000   14.1830000   23.8520000  
C 21.7890000   15.0590000   23.2150000  
O 23.0120000   15.0320000   23.2730000  
O 20.2430000   21.0950000   19.5170000  
O 17.8070000   20.3410000   20.1140000  
H 18.8390000   15.5700000   22.5520000  
H 20.0910000   14.4820000   23.5350000  
H 22.7310000   17.4090000   22.1020000  
H 21.2370000   21.2640000   19.4390000  
H 18.3090000   21.1370000   19.7140000  
C 22.6250000   19.5930000   20.6130000  
C 23.6360000   18.9200000   19.8940000  
C 24.9850000   19.2920000   19.9310000  
C 25.3860000   20.3930000   20.6720000  
C 24.4660000   21.1200000   21.3580000  
C 23.0760000   20.7600000   21.3490000  
C 23.6120000   17.8000000   19.0010000  
C 24.8990000   17.3420000   18.7360000  
N 25.7620000   18.3400000   19.2940000  
O 24.3770000   15.2200000   17.7570000  
C 25.3570000   16.0460000   18.2230000  
O 26.5100000   15.6560000   18.1890000  
O 24.8520000   22.2540000   22.0270000  
O 22.2020000   21.4690000   22.1210000  
H 22.7130000   17.2780000   18.7480000  
H 23.6140000   15.7130000   18.0590000  
H 26.7850000   18.2680000   19.4390000  
H 24.0830000   22.8070000   22.2080000  
H 21.3510000   21.5560000   21.5970000  
H 26.3990000   20.8170000   20.5920000  
