76
101 
C 12.2180000   17.0090000   26.1510000  
C 12.1140000   18.1540000   27.1770000  
C 13.0470000   19.0890000   27.0790000  
C 14.0600000   19.1080000   26.1420000  
C 14.2380000   18.1920000   25.1230000  
C 13.3170000   17.0240000   24.9890000  
C 13.4670000   20.1140000   27.9750000  
C 14.6140000   20.8260000   27.5170000  
N 14.9500000   20.1870000   26.3460000  
O 14.8860000   22.2640000   29.1720000  
C 15.3580000   21.9220000   28.0030000  
O 16.3430000   22.3620000   27.5260000  
O 13.4220000   16.1620000   24.1640000  
O 11.4160000   16.0630000   26.1510000  
H 11.3390000   18.1970000   27.9820000  
H 12.8480000   20.3580000   28.8360000  
H 14.0900000   21.7390000   29.2100000  
H 15.6870000   20.3950000   25.7540000  
C 15.3600000   18.4170000   24.2790000  
C 16.4560000   17.6180000   24.4340000  
C 17.5380000   17.7340000   23.5330000  
C 17.5950000   18.6890000   22.4470000  
C 16.4670000   19.5610000   22.3080000  
C 15.2920000   19.3730000   23.1830000  
C 16.7980000   16.5150000   25.2980000  
C 18.0580000   16.0730000   24.9050000  
N 18.4930000   16.8230000   23.7990000  
O 18.4270000   14.2380000   26.3860000  
C 18.8570000   14.9130000   25.3560000  
O 19.8330000   14.5780000   24.7490000  
O 16.4350000   20.5270000   21.3870000  
O 14.2180000   20.1660000   23.0580000  
H 16.3040000   16.0910000   26.1390000  
H 17.5990000   14.6660000   26.6020000  
H 19.3430000   16.7600000   23.2550000  
H 17.3390000   20.7180000   21.1060000  
H 14.3840000   20.7210000   22.3000000  
C 18.6980000   18.6220000   21.4510000  
C 18.9820000   17.4000000   20.8050000  
C 19.9160000   17.3150000   19.8350000  
C 20.6090000   18.3640000   19.2730000  
C 20.4410000   19.6260000   19.9710000  
C 19.4460000   19.7620000   20.9800000  
C 18.4670000   16.0390000   20.9270000  
C 19.2390000   15.2710000   20.0100000  
N 20.1590000   16.0560000   19.3360000  
O 17.9620000   13.2950000   20.3590000  
C 18.9310000   13.8680000   19.6520000  
O 19.4280000   13.2840000   18.7270000  
O 21.2040000   20.7230000   19.5860000  
O 19.2390000   20.9300000   21.6210000  
H 17.5590000   15.6870000   21.3910000  
H 17.7360000   13.9570000   21.0650000  
H 20.8140000   15.8000000   18.5570000  
H 21.5360000   20.4750000   18.7120000  
H 20.0420000   21.4690000   21.4050000  
C 21.5510000   18.2530000   18.2010000  
C 21.1040000   18.2990000   16.8720000  
C 22.0670000   18.3940000   15.8800000  
C 23.4440000   18.2820000   15.9960000  
C 23.9090000   18.2200000   17.3000000  
C 23.0020000   18.2510000   18.3690000  
C 19.7970000   18.4100000   16.2280000  
C 20.0760000   18.4530000   14.8630000  
N 21.4560000   18.3730000   14.6420000  
O 17.7420000   18.5420000   14.2300000  
C 19.0200000   18.4900000   13.7830000  
O 19.3030000   18.4450000   12.5990000  
O 25.2440000   18.2240000   17.5540000  
O 23.3590000   18.1660000   19.6780000  
H 18.8350000   18.3460000   16.6850000  
H 17.8400000   18.8470000   15.1550000  
H 21.9210000   18.3530000   13.6760000  
H 25.7030000   18.2360000   16.6640000  
H 22.4950000   18.0490000   20.1750000  
H 24.0700000   18.2210000   15.1250000  
