76
101 
C 21.8560000   12.7330000   25.3230000  
C 21.0670000   12.3510000   26.5230000  
C 19.7820000   12.8030000   26.6480000  
C 19.2160000   13.7520000   25.8360000  
C 19.7880000   14.2400000   24.6620000  
C 21.1590000   13.7540000   24.2800000  
C 18.8750000   12.6550000   27.7380000  
C 17.6490000   13.2910000   27.4290000  
N 17.9920000   14.0960000   26.3400000  
O 16.3490000   12.2450000   29.1110000  
C 16.3560000   13.1060000   28.0660000  
O 15.3540000   13.5770000   27.6490000  
O 21.7760000   14.1460000   23.2950000  
O 23.0260000   12.2600000   25.1610000  
H 21.5770000   11.7980000   27.2460000  
H 18.9160000   11.9120000   28.5300000  
H 17.2190000   11.9510000   29.2490000  
H 17.3600000   14.6660000   25.8280000  
C 19.0600000   15.2560000   23.9180000  
C 19.1030000   16.6160000   24.2040000  
C 18.4350000   17.4880000   23.3710000  
C 17.9080000   17.1880000   22.0860000  
C 17.9340000   15.8240000   21.7810000  
C 18.4050000   14.9010000   22.7350000  
C 19.7880000   17.3430000   25.2120000  
C 19.6100000   18.7080000   24.8450000  
N 18.6190000   18.7450000   23.8480000  
O 21.2390000   19.7010000   26.2790000  
C 20.1940000   19.9360000   25.4970000  
O 19.8500000   21.0760000   25.3270000  
O 17.6090000   15.3680000   20.4990000  
O 18.3760000   13.6170000   22.4110000  
H 20.3560000   16.8910000   26.0540000  
H 21.4700000   18.7940000   26.1660000  
H 18.1220000   19.5010000   23.4990000  
H 17.3120000   16.1640000   19.9700000  
H 18.0860000   13.6250000   21.4930000  
C 17.4780000   18.3150000   21.1780000  
C 18.2380000   19.3810000   20.6820000  
C 17.6790000   20.3960000   19.9380000  
C 16.3250000   20.3970000   19.5600000  
C 15.5000000   19.3130000   20.0460000  
C 16.0630000   18.3620000   20.9540000  
C 19.6200000   19.7310000   20.8560000  
C 19.9050000   20.8900000   20.0280000  
N 18.6320000   21.2550000   19.4870000  
O 22.2810000   21.2890000   20.2910000  
C 21.1350000   21.6480000   19.7350000  
O 21.1030000   22.6090000   18.9950000  
O 14.1160000   19.3580000   19.8230000  
O 15.3000000   17.4320000   21.5970000  
H 20.3790000   19.1440000   21.4530000  
H 22.0310000   20.5580000   20.7960000  
H 18.2830000   22.0170000   18.9200000  
H 13.9630000   19.9670000   19.0980000  
H 14.3840000   17.5410000   21.2280000  
C 15.7280000   21.4190000   18.6790000  
C 15.8210000   21.2900000   17.2870000  
C 15.2720000   22.2130000   16.4240000  
C 14.5100000   23.2830000   16.8390000  
C 14.3700000   23.4180000   18.2180000  
C 14.9320000   22.5120000   19.1550000  
C 16.5240000   20.2590000   16.5030000  
C 16.4020000   20.6320000   15.1510000  
N 15.6180000   21.8150000   15.1590000  
O 17.7570000   18.8160000   14.2890000  
C 16.9170000   19.8750000   14.0390000  
O 16.6650000   20.1500000   12.8580000  
O 13.6190000   24.4780000   18.7390000  
O 14.9200000   22.8240000   20.4550000  
H 16.9200000   19.3750000   16.9400000  
H 17.7200000   18.7620000   15.2300000  
H 15.0740000   22.2050000   14.3760000  
H 13.6010000   24.4750000   19.7510000  
H 14.9370000   22.0400000   20.9710000  
H 13.9740000   23.9800000   16.1490000  
