76
101 
C 14.4020000   12.2710000   18.0050000  
C 13.1770000   12.1050000   18.8410000  
C 13.1140000   12.7650000   20.0140000  
C 14.0860000   13.6510000   20.3820000  
C 15.2290000   14.0350000   19.6910000  
C 15.5010000   13.3320000   18.4820000  
C 12.1350000   12.6920000   21.1250000  
C 12.5800000   13.5900000   22.1530000  
N 13.7510000   14.1830000   21.6070000  
O 10.6600000   13.3070000   23.6050000  
C 11.9060000   13.9070000   23.4170000  
O 12.4190000   14.7620000   24.1120000  
O 16.5660000   13.3980000   17.9050000  
O 14.7070000   11.7080000   16.9830000  
H 12.4640000   11.2950000   18.5680000  
H 11.2010000   12.1110000   21.1670000  
H 10.4990000   13.0420000   22.7140000  
H 14.2920000   14.9350000   22.0500000  
C 15.9090000   15.2470000   20.1220000  
C 17.0370000   15.0880000   20.9070000  
C 17.7140000   16.2120000   21.3710000  
C 17.3030000   17.5600000   21.1750000  
C 16.0620000   17.6710000   20.5150000  
C 15.3730000   16.5570000   19.9590000  
C 17.6820000   13.9360000   21.4690000  
C 18.8680000   14.4270000   22.0460000  
N 18.7700000   15.8430000   22.1460000  
O 19.5920000   12.4820000   22.9380000  
C 19.8820000   13.7490000   22.8920000  
O 20.7960000   14.3890000   23.4450000  
O 15.4900000   18.9120000   20.4040000  
O 14.1640000   16.8240000   19.4270000  
H 17.4360000   12.8600000   21.2480000  
H 18.7050000   12.4450000   22.5320000  
H 19.4610000   16.4320000   22.5910000  
H 15.9640000   19.4160000   21.0920000  
H 14.2460000   17.7240000   19.1980000  
C 18.0800000   18.6950000   21.7730000  
C 19.5010000   18.8330000   21.6370000  
C 20.1210000   19.9080000   22.1900000  
C 19.5330000   20.9590000   22.9450000  
C 18.1150000   20.7530000   23.1570000  
C 17.4320000   19.6630000   22.6500000  
C 20.4980000   18.2080000   20.8040000  
C 21.7150000   18.8720000   20.9870000  
N 21.4410000   19.9410000   21.8530000  
O 22.9940000   17.5530000   19.4950000  
C 23.0240000   18.5800000   20.2900000  
O 24.0880000   19.1300000   20.5100000  
O 17.4290000   21.6650000   23.9440000  
O 16.1760000   19.5890000   22.9420000  
H 20.3470000   17.2660000   20.2990000  
H 22.1620000   17.1060000   19.6890000  
H 22.1500000   20.6570000   21.9800000  
H 18.0360000   22.3380000   24.1260000  
H 16.0990000   20.1920000   23.7090000  
C 20.2800000   21.9910000   23.7010000  
C 20.7310000   23.1180000   23.0140000  
C 21.3080000   24.1430000   23.6810000  
C 21.5660000   24.0370000   25.0330000  
C 21.0670000   22.9310000   25.7530000  
C 20.5000000   21.8930000   25.0790000  
C 20.5880000   23.4990000   21.6710000  
C 21.0460000   24.8180000   21.5640000  
N 21.4530000   25.2450000   22.8410000  
O 20.7050000   25.0570000   19.1800000  
C 21.0450000   25.6890000   20.3580000  
O 21.3410000   26.8630000   20.3140000  
O 21.1100000   22.9030000   27.0910000  
O 20.0600000   20.7840000   25.6690000  
H 20.2730000   22.8680000   20.8570000  
H 20.3380000   24.1440000   19.4450000  
H 21.7120000   26.2030000   23.0970000  
H 21.0500000   21.9290000   27.3140000  
H 19.9300000   20.0070000   25.0150000  
H 22.0960000   24.8370000   25.5610000  
