76
101 
C 16.4920000   19.2400000   28.8410000  
C 17.5110000   18.5070000   29.6030000  
C 18.3010000   17.6080000   29.0060000  
C 18.1660000   17.1850000   27.6940000  
C 17.3730000   17.8710000   26.8430000  
C 16.3530000   18.8450000   27.3370000  
C 19.5280000   16.9940000   29.4710000  
C 20.1540000   16.3820000   28.3560000  
N 19.2990000   16.5550000   27.2770000  
O 22.1140000   15.9740000   29.5400000  
C 21.4820000   15.7450000   28.3830000  
O 21.9450000   15.0640000   27.4880000  
O 15.6270000   19.5140000   26.5360000  
O 15.8930000   20.1530000   29.3800000  
H 17.6710000   18.8870000   30.6470000  
H 20.0410000   17.0720000   30.4210000  
H 21.3980000   16.5230000   29.9900000  
H 19.4660000   16.3080000   26.3820000  
C 17.5800000   17.8090000   25.4290000  
C 16.6550000   17.1590000   24.6690000  
C 16.9070000   17.1390000   23.3200000  
C 17.9230000   17.7980000   22.6170000  
C 18.8270000   18.4950000   23.3900000  
C 18.6740000   18.5010000   24.7780000  
C 15.4750000   16.3990000   25.0210000  
C 15.0940000   15.9490000   23.7550000  
N 15.9470000   16.3920000   22.7500000  
O 13.0990000   15.0820000   24.4890000  
C 13.9350000   15.0770000   23.4610000  
O 13.6660000   14.5710000   22.3920000  
O 19.8630000   19.0970000   22.8140000  
O 19.6450000   19.1140000   25.5160000  
H 14.9390000   16.3060000   25.9520000  
H 13.4830000   15.5730000   25.2150000  
H 16.0650000   15.9030000   21.8680000  
H 19.6060000   19.1800000   21.8960000  
H 20.3750000   19.3790000   24.9220000  
C 18.0390000   17.8390000   21.0980000  
C 17.2370000   18.6810000   20.2630000  
C 17.3750000   18.7350000   18.9160000  
C 18.3530000   18.0630000   18.2340000  
C 19.2300000   17.2970000   19.0580000  
C 19.0690000   17.1570000   20.4320000  
C 16.0590000   19.4930000   20.5610000  
C 15.5040000   19.8970000   19.3310000  
N 16.4080000   19.5610000   18.3370000  
O 13.4130000   20.7050000   20.1280000  
C 14.2270000   20.5490000   19.0820000  
O 13.8580000   21.0220000   18.0010000  
O 20.1290000   16.5070000   18.4140000  
O 19.9210000   16.2460000   21.1330000  
H 15.7420000   19.6580000   21.5900000  
H 13.9500000   20.0990000   20.7320000  
H 16.2790000   19.6590000   17.3340000  
H 19.9830000   16.8760000   17.5220000  
H 20.4580000   15.8710000   20.4280000  
C 18.4700000   18.1420000   16.7760000  
C 19.5090000   18.8390000   16.0680000  
C 19.5980000   18.7570000   14.7290000  
C 18.7610000   18.0020000   13.9310000  
C 17.7450000   17.2580000   14.5320000  
C 17.5870000   17.3330000   15.9590000  
C 20.5030000   19.7670000   16.5230000  
C 21.2090000   20.2080000   15.4280000  
N 20.6730000   19.5300000   14.2950000  
O 22.4780000   21.8680000   16.4110000  
C 22.3340000   21.1710000   15.3450000  
O 22.9930000   21.3870000   14.3140000  
O 16.9670000   16.4330000   13.7880000  
O 16.6440000   16.5310000   16.5690000  
H 20.6530000   20.0140000   17.5570000  
H 21.6740000   21.7160000   16.9350000  
H 21.0880000   19.4640000   13.4240000  
H 16.4550000   15.8050000   14.3650000  
H 16.6380000   16.8030000   17.5050000  
H 18.8300000   18.0700000   12.8310000  
