76
101 
C 13.4040000   21.4860000   27.0990000  
C 13.6890000   20.6180000   28.2720000  
C 14.6380000   19.7040000   28.0780000  
C 15.2360000   19.3980000   26.8550000  
C 15.0540000   20.0300000   25.6900000  
C 14.1290000   21.2360000   25.6550000  
C 15.2840000   18.8090000   29.0230000  
C 16.2550000   17.9790000   28.3420000  
N 16.1920000   18.3850000   26.9960000  
O 17.0130000   16.7200000   30.1700000  
C 17.0990000   16.9490000   28.8600000  
O 17.8180000   16.3390000   28.1190000  
O 14.0190000   22.0080000   24.7620000  
O 12.5870000   22.4140000   27.1100000  
H 13.1180000   20.8110000   29.2150000  
H 14.9770000   18.7980000   30.0580000  
H 16.2890000   17.3930000   30.4590000  
H 16.4480000   17.8140000   26.1990000  
C 15.8720000   19.6000000   24.5060000  
C 15.5940000   18.4990000   23.7310000  
C 16.3820000   18.1540000   22.7040000  
C 17.5950000   18.7780000   22.3860000  
C 17.8920000   19.9300000   23.2190000  
C 17.0170000   20.2920000   24.2450000  
C 14.5970000   17.4360000   23.7390000  
C 14.8070000   16.5940000   22.6300000  
N 16.0840000   16.9570000   22.0950000  
O 12.7960000   15.4790000   22.8130000  
C 13.9830000   15.4660000   22.2030000  
O 14.3920000   14.6660000   21.3960000  
O 19.1190000   20.5730000   23.0980000  
O 17.3440000   21.3030000   25.0890000  
H 13.8230000   17.3760000   24.4630000  
H 13.0350000   16.1990000   23.4720000  
H 16.6510000   16.3740000   21.4800000  
H 19.7790000   19.8150000   22.8300000  
H 18.1100000   21.7200000   24.7410000  
C 18.4860000   18.2700000   21.2610000  
C 18.0220000   18.3740000   19.9370000  
C 18.7380000   17.7480000   18.9200000  
C 19.8710000   17.0210000   19.0680000  
C 20.4450000   17.0100000   20.4000000  
C 19.7010000   17.5200000   21.4840000  
C 16.9060000   19.0220000   19.2850000  
C 16.9560000   18.6880000   17.8990000  
N 18.0800000   17.8640000   17.7250000  
O 15.1130000   19.9800000   17.3430000  
C 16.1310000   19.2680000   16.8590000  
O 16.2990000   18.9950000   15.6690000  
O 21.5530000   16.2980000   20.6390000  
O 20.2360000   17.4000000   22.7710000  
H 16.3170000   19.8280000   19.7760000  
H 15.1770000   19.9340000   18.3160000  
H 18.3950000   17.3700000   16.8740000  
H 21.8540000   15.9280000   19.7920000  
H 20.9310000   16.7300000   22.7760000  
C 20.6900000   16.2910000   17.9400000  
C 21.8780000   16.8630000   17.4270000  
C 22.6840000   16.2530000   16.4790000  
C 22.2830000   15.1320000   15.7800000  
C 21.0360000   14.6150000   16.2160000  
C 20.2480000   15.1530000   17.2790000  
C 22.6410000   18.0030000   17.8710000  
C 23.8810000   17.9730000   17.2690000  
N 23.8590000   16.9120000   16.3960000  
O 24.7540000   19.8920000   18.4020000  
C 24.9730000   18.8970000   17.5390000  
O 26.0180000   18.8320000   16.8610000  
O 20.5710000   13.4970000   15.5460000  
O 19.1710000   14.5290000   17.8290000  
H 22.3740000   18.5330000   18.7620000  
H 23.8450000   19.7220000   18.6530000  
H 24.6660000   16.3820000   16.0350000  
H 19.8990000   13.0880000   16.1100000  
H 18.7480000   15.0300000   18.5760000  
H 22.8930000   14.6940000   14.9540000  
