76
101 
C 18.5980000   10.6320000   23.3080000  
C 19.4010000   10.7630000   24.5710000  
C 19.4950000   11.9110000   25.1870000  
C 18.9340000   13.0740000   24.7420000  
C 18.3400000   13.1940000   23.4660000  
C 18.1100000   11.9620000   22.6680000  
C 20.2250000   12.2050000   26.3540000  
C 20.1720000   13.5850000   26.5590000  
N 19.2900000   14.0980000   25.5690000  
O 21.5150000   13.7440000   28.5210000  
C 20.7530000   14.4210000   27.5800000  
O 20.5920000   15.6280000   27.6210000  
O 17.5710000   11.9060000   21.5690000  
O 18.4490000    9.5740000   22.7490000  
H 19.8330000    9.8000000   24.8360000  
H 20.7500000   11.4680000   26.9620000  
H 21.4550000   12.8170000   28.2720000  
H 19.1100000   15.0860000   25.3240000  
C 17.9790000   14.4720000   23.1110000  
C 19.0080000   15.2840000   22.6490000  
C 18.6770000   16.5980000   22.3670000  
C 17.3950000   17.1810000   22.2760000  
C 16.3510000   16.3150000   22.6180000  
C 16.6290000   14.9580000   23.0190000  
C 20.4530000   15.1740000   22.5610000  
C 20.9760000   16.4280000   22.4090000  
N 19.8980000   17.3210000   22.2830000  
O 23.3110000   15.8260000   22.5960000  
C 22.4250000   16.8150000   22.3750000  
O 22.9170000   17.9940000   22.2710000  
O 15.0830000   16.7830000   22.6960000  
O 15.5980000   14.2330000   23.5050000  
H 21.0240000   14.2060000   22.7080000  
H 22.7210000   15.0610000   22.6070000  
H 20.0770000   18.2400000   21.9700000  
H 15.0620000   17.7530000   22.6620000  
H 14.7650000   14.3970000   23.0300000  
C 17.1890000   18.5990000   21.8530000  
C 17.5980000   19.0040000   20.5340000  
C 17.3810000   20.2980000   20.2590000  
C 16.7940000   21.3230000   21.0730000  
C 16.3220000   20.8550000   22.3030000  
C 16.6420000   19.5270000   22.7210000  
C 18.2220000   18.2950000   19.4620000  
C 18.5140000   19.3030000   18.5200000  
N 17.9950000   20.5530000   19.0390000  
O 19.8140000   18.0040000   17.0180000  
C 19.3160000   19.2100000   17.2440000  
O 19.5830000   20.0800000   16.4450000  
O 15.7340000   21.7190000   23.2140000  
O 16.2420000   19.2130000   23.9830000  
H 18.4830000   17.2240000   19.4330000  
H 19.2840000   17.5370000   17.6970000  
H 18.1080000   21.4400000   18.5740000  
H 15.1880000   22.4020000   22.7390000  
H 15.9530000   20.0450000   24.4390000  
C 16.7680000   22.7240000   20.5170000  
C 16.2090000   23.0180000   19.2450000  
C 15.9580000   24.3300000   18.8470000  
C 16.4460000   25.4300000   19.6100000  
C 16.9900000   25.1800000   20.8650000  
C 17.2660000   23.8410000   21.3280000  
C 15.5470000   22.0770000   18.3030000  
C 15.0400000   22.9470000   17.3670000  
N 15.3340000   24.2820000   17.6550000  
O 13.8330000   21.4120000   16.0230000  
C 14.0760000   22.7130000   16.2630000  
O 13.5000000   23.5780000   15.6230000  
O 17.4800000   26.2870000   21.4610000  
O 17.9950000   23.6340000   22.4390000  
H 15.3450000   21.0210000   18.4050000  
H 14.4980000   20.9150000   16.5780000  
H 14.9590000   25.0620000   17.1560000  
H 18.0540000   25.8700000   22.0800000  
H 18.1970000   22.6840000   22.5180000  
H 16.4460000   26.4620000   19.2110000  
