76
101 
C 15.3820000   19.4230000   28.7960000  
C 16.2760000   18.5360000   29.6290000  
C 17.3250000   17.8300000   29.0360000  
C 17.5490000   17.9060000   27.6590000  
C 16.7670000   18.6720000   26.8010000  
C 15.6110000   19.4670000   27.2370000  
C 18.5140000   17.2120000   29.5300000  
C 19.3600000   16.8230000   28.4660000  
N 18.7000000   17.2770000   27.3660000  
O 21.0310000   15.9070000   29.8950000  
C 20.6920000   16.2010000   28.5810000  
O 21.3610000   15.8710000   27.6300000  
O 14.8390000   19.9050000   26.4140000  
O 14.4240000   20.0010000   29.3130000  
H 16.0240000   18.5880000   30.6190000  
H 18.7150000   17.0970000   30.5880000  
H 20.2960000   16.1810000   30.5070000  
H 19.0650000   17.2990000   26.3630000  
C 17.1160000   18.6440000   25.4080000  
C 16.7030000   17.6160000   24.5780000  
C 17.0780000   17.5720000   23.2770000  
C 17.8310000   18.5630000   22.5890000  
C 18.3550000   19.5970000   23.4530000  
C 17.9330000   19.7000000   24.8330000  
C 16.0370000   16.4510000   24.9220000  
C 15.7620000   15.8470000   23.6960000  
N 16.4840000   16.5140000   22.7210000  
O 14.7000000   13.8450000   24.4570000  
C 15.1800000   14.5300000   23.4080000  
O 14.9190000   14.1660000   22.3090000  
O 18.9590000   20.6680000   22.9610000  
O 18.3410000   20.8190000   25.5320000  
H 15.7580000   16.0260000   25.9010000  
H 14.8090000   14.4790000   25.1540000  
H 16.7560000   16.1340000   21.7860000  
H 19.2070000   20.5590000   22.0370000  
H 18.8040000   21.4640000   24.9870000  
C 18.2030000   18.4640000   21.1620000  
C 17.2350000   18.5160000   20.1420000  
C 17.5360000   18.3260000   18.8170000  
C 18.8620000   18.0070000   18.3730000  
C 19.8890000   18.0450000   19.3590000  
C 19.5380000   18.2250000   20.7290000  
C 15.7910000   18.5850000   20.1850000  
C 15.3560000   18.3620000   18.8380000  
N 16.4850000   18.3340000   18.0020000  
O 12.9810000   18.2730000   19.1230000  
C 13.9670000   18.1670000   18.2710000  
O 13.7500000   18.0660000   17.0920000  
O 21.1680000   17.5950000   19.0820000  
O 20.3970000   17.9410000   21.7240000  
H 15.1070000   18.7700000   21.0040000  
H 13.2930000   18.5880000   20.0150000  
H 16.4030000   18.1170000   17.0170000  
H 21.2830000   17.5150000   18.0970000  
H 21.2410000   17.5530000   21.3380000  
C 19.2550000   17.6760000   16.9840000  
C 19.9850000   18.5960000   16.1640000  
C 20.3630000   18.3340000   14.8430000  
C 19.9850000   17.1830000   14.1530000  
C 19.4080000   16.2270000   15.0200000  
C 19.0830000   16.4140000   16.3750000  
C 20.3270000   19.9780000   16.4050000  
C 20.9980000   20.4930000   15.2730000  
N 21.0740000   19.4380000   14.3180000  
O 21.4390000   22.6570000   16.0950000  
C 21.5710000   21.8130000   15.0190000  
O 22.1080000   22.1080000   13.9430000  
O 19.1270000   14.9860000   14.4800000  
O 18.5370000   15.3930000   17.1470000  
H 20.1470000   20.5730000   17.3540000  
H 21.1720000   22.1310000   16.8290000  
H 21.6050000   19.4170000   13.5180000  
H 18.6540000   14.3370000   14.9960000  
H 18.2810000   15.7700000   18.0130000  
H 20.1370000   16.9690000   13.1020000  
