76
101 
C 19.1990000   10.6680000   21.8100000  
C 17.9270000   10.1370000   21.1580000  
C 17.0490000   10.9490000   20.5520000  
C 17.2720000   12.3280000   20.5960000  
C 18.2440000   13.0250000   21.2620000  
C 19.2900000   12.2480000   22.0070000  
C 15.9870000   10.6780000   19.6800000  
C 15.4880000   11.9230000   19.2230000  
N 16.2840000   12.8930000   19.8130000  
O 13.8410000   11.1200000   17.8470000  
C 14.4720000   12.1940000   18.1600000  
O 14.3240000   13.2550000   17.6840000  
O 20.2900000   12.6420000   22.6550000  
O 20.0350000    9.9740000   22.3570000  
H 17.8450000    9.0850000   21.2150000  
H 15.7440000    9.6870000   19.2870000  
H 14.2200000   10.3260000   18.3060000  
H 16.1350000   13.9200000   19.6390000  
C 18.1030000   14.5000000   21.3170000  
C 17.4320000   15.1610000   22.3710000  
C 17.2010000   16.4780000   22.2400000  
C 17.6470000   17.3120000   21.1690000  
C 18.3230000   16.6900000   20.1090000  
C 18.4770000   15.2890000   20.2070000  
C 16.7780000   14.7230000   23.6120000  
C 16.3540000   15.9360000   24.2430000  
N 16.5800000   16.9900000   23.3550000  
O 15.4400000   14.9160000   26.1790000  
C 15.6820000   16.0690000   25.5340000  
O 15.3390000   17.1760000   25.9640000  
O 19.0780000   17.3690000   19.1790000  
O 19.0360000   14.6610000   19.1030000  
H 16.8610000   13.7040000   23.9080000  
H 15.8540000   14.2640000   25.5750000  
H 16.4070000   18.0280000   23.4950000  
H 18.8480000   18.2880000   19.2450000  
H 19.4070000   15.3520000   18.5000000  
C 17.6850000   18.8080000   21.3540000  
C 18.3760000   19.3250000   22.4050000  
C 18.4220000   20.6440000   22.6920000  
C 17.9260000   21.6510000   21.7830000  
C 17.3070000   21.1240000   20.6490000  
C 17.1620000   19.7280000   20.4470000  
C 19.0980000   18.6830000   23.4820000  
C 19.4150000   19.7040000   24.4110000  
N 19.0900000   20.9740000   23.8270000  
O 20.1270000   18.1910000   26.0870000  
C 19.9710000   19.4730000   25.7300000  
O 20.3590000   20.3770000   26.4590000  
O 16.8700000   21.9630000   19.6630000  
O 16.3700000   19.2620000   19.4260000  
H 19.1900000   17.6060000   23.6050000  
H 20.0400000   17.7300000   25.2100000  
H 18.9920000   21.8190000   24.3230000  
H 17.1000000   22.9590000   19.8230000  
H 15.6750000   19.8880000   19.1770000  
C 18.0800000   23.0640000   22.0550000  
C 18.9630000   23.8340000   21.3360000  
C 19.2280000   25.1190000   21.6290000  
C 18.4190000   25.8280000   22.5080000  
C 17.3520000   25.1300000   23.1910000  
C 17.2490000   23.7360000   23.0020000  
C 19.9230000   23.4650000   20.3620000  
C 20.6600000   24.5380000   19.9790000  
N 20.2300000   25.5780000   20.7870000  
O 22.0380000   23.3900000   18.3940000  
C 21.7880000   24.5480000   18.9800000  
O 22.4520000   25.5700000   18.7510000  
O 16.5020000   25.8440000   23.9850000  
O 16.3240000   23.0070000   23.6950000  
H 20.0840000   22.4730000   19.9350000  
H 21.5410000   22.7120000   18.8360000  
H 20.5580000   26.5320000   20.5820000  
H 15.9320000   25.2240000   24.5330000  
H 16.5110000   22.0700000   23.6360000  
H 18.6490000   26.8370000   22.7050000  
