76
101 
C 10.7790000   16.5290000   19.9510000  
C 10.5380000   15.3450000   20.8790000  
C 11.4980000   14.8980000   21.7060000  
C 12.7280000   15.4860000   21.8610000  
C 13.1130000   16.6030000   21.1450000  
C 12.2040000   17.2130000   20.1050000  
C 11.4590000   13.8430000   22.6580000  
C 12.7200000   13.7430000   23.2790000  
N 13.4380000   14.7870000   22.7870000  
O 12.0750000   11.9100000   24.7080000  
C 13.1190000   12.7040000   24.2670000  
O 14.1860000   12.5820000   24.8280000  
O 12.6320000   18.1460000   19.4470000  
O  9.8840000   16.9290000   19.1780000  
H  9.5950000   14.8310000   20.8310000  
H 10.6090000   13.2700000   22.7760000  
H 11.4380000   12.2310000   24.1150000  
H 14.3840000   14.9970000   23.0070000  
C 14.5100000   16.9730000   21.3960000  
C 15.5760000   16.5540000   20.5310000  
C 16.8660000   16.8750000   20.8220000  
C 17.3240000   17.5080000   21.9620000  
C 16.3450000   17.9550000   22.8710000  
C 14.9590000   17.6060000   22.6200000  
C 15.6040000   15.8780000   19.2980000  
C 16.9640000   15.9110000   18.9020000  
N 17.7140000   16.6110000   19.8180000  
O 16.4040000   15.0540000   16.7430000  
C 17.4210000   15.4370000   17.5430000  
O 18.5980000   15.3430000   17.2920000  
O 16.6200000   18.7610000   23.9690000  
O 14.0310000   17.9930000   23.4990000  
H 14.7340000   15.3830000   18.9100000  
H 15.6850000   15.5370000   17.2070000  
H 18.7200000   16.8070000   19.7940000  
H 17.5080000   19.0780000   23.8370000  
H 14.3890000   18.5990000   24.0950000  
C 18.7080000   17.9570000   22.1370000  
C 19.2140000   18.9300000   21.2510000  
C 20.4960000   19.3580000   21.4630000  
C 21.3780000   18.7880000   22.3970000  
C 20.8430000   17.8720000   23.3560000  
C 19.5030000   17.4030000   23.2040000  
C 18.6640000   19.7610000   20.1860000  
C 19.6750000   20.6850000   19.7290000  
N 20.8470000   20.3210000   20.5140000  
O 18.3150000   22.0260000   18.4570000  
C 19.5570000   21.7870000   18.7840000  
O 20.5750000   22.3450000   18.3410000  
O 21.6070000   17.3830000   24.3390000  
O 19.0160000   16.5030000   24.1780000  
H 17.7550000   19.7270000   19.6320000  
H 17.7860000   21.3300000   18.9490000  
H 21.7590000   20.8000000   20.5190000  
H 22.3480000   17.9220000   24.2330000  
H 19.6900000   15.8100000   24.1530000  
C 22.8190000   19.3000000   22.6550000  
C 22.9990000   20.6420000   23.0130000  
C 24.2300000   21.1360000   23.2650000  
C 25.3760000   20.3620000   23.1020000  
C 25.2530000   19.0430000   22.6370000  
C 23.9720000   18.5070000   22.4140000  
C 21.9960000   21.5830000   23.3580000  
C 22.6760000   22.7400000   23.4840000  
N 24.0540000   22.4700000   23.5740000  
O 20.8430000   24.2120000   23.4330000  
C 22.1510000   24.0560000   23.7410000  
O 22.8650000   24.9970000   24.1200000  
O 26.4140000   18.2580000   22.4970000  
O 23.7280000   17.1120000   22.2670000  
H 20.9550000   21.4140000   23.4630000  
H 20.5320000   23.3740000   23.2080000  
H 24.7260000   23.2100000   23.6160000  
H 26.2580000   17.3310000   22.3410000  
H 22.7410000   17.0040000   22.1350000  
H 26.3980000   20.8040000   23.2360000  
