76
101 
C 11.6650000   16.1430000   25.6140000  
C 11.1370000   17.4230000   26.0690000  
C 11.8720000   18.5980000   25.8440000  
C 13.1710000   18.4870000   25.2990000  
C 13.8400000   17.3340000   24.8550000  
C 13.0410000   16.0580000   24.9990000  
C 11.5410000   19.9920000   25.8370000  
C 12.5590000   20.7760000   25.2470000  
N 13.4860000   19.7590000   24.9300000  
O 11.6430000   23.0080000   25.5200000  
C 12.6350000   22.2690000   24.9880000  
O 13.4940000   22.8280000   24.3620000  
O 13.4990000   14.9170000   24.6370000  
O 11.1250000   15.1400000   25.9400000  
H 10.1140000   17.3970000   26.4970000  
H 10.5920000   20.3120000   26.0860000  
H 10.9750000   22.5080000   26.0420000  
H 14.2530000   19.9600000   24.3280000  
C 15.0460000   17.3830000   24.0230000  
C 16.2970000   17.7440000   24.5050000  
C 17.3630000   17.8150000   23.6210000  
C 17.2890000   17.5880000   22.2200000  
C 16.0100000   17.2580000   21.7230000  
C 14.8720000   17.1550000   22.6110000  
C 16.8140000   18.1310000   25.7610000  
C 18.1540000   18.5750000   25.5520000  
N 18.5120000   18.2950000   24.2500000  
O 18.6470000   19.3200000   27.7860000  
C 19.1510000   19.0370000   26.5770000  
O 20.3500000   19.1160000   26.3420000  
O 15.8380000   17.1350000   20.3940000  
O 13.6350000   16.8430000   22.1430000  
H 16.3220000   18.1020000   26.6940000  
H 17.6960000   19.3140000   27.5480000  
H 19.4110000   18.3770000   23.8210000  
H 16.7150000   17.3470000   19.9890000  
H 13.8090000   16.7350000   21.1960000  
C 18.4960000   17.8440000   21.3700000  
C 19.5990000   17.0160000   21.4120000  
C 20.6390000   17.2610000   20.5280000  
C 20.6880000   18.3520000   19.6440000  
C 19.4880000   19.1000000   19.5070000  
C 18.4660000   18.9430000   20.4440000  
C 19.9400000   15.7120000   21.9620000  
C 21.1890000   15.3780000   21.5310000  
N 21.6540000   16.2950000   20.5640000  
O 21.4210000   13.4180000   22.8560000  
C 21.9190000   14.1320000   21.8880000  
O 22.9980000   13.8230000   21.3750000  
O 19.4080000   20.0520000   18.5220000  
O 17.3790000   19.7570000   20.4060000  
H 19.2810000   15.2340000   22.6390000  
H 20.7020000   13.9470000   23.2400000  
H 22.5030000   16.3230000   20.0110000  
H 20.3170000   20.1520000   18.1040000  
H 17.3400000   20.2900000   19.5800000  
C 21.8130000   18.6270000   18.7000000  
C 21.8030000   18.3400000   17.2860000  
C 22.8470000   18.7890000   16.4500000  
C 23.9900000   19.4980000   16.8920000  
C 24.0810000   19.7160000   18.3210000  
C 23.0200000   19.3230000   19.1590000  
C 20.7740000   17.6660000   16.4970000  
C 21.2430000   17.6590000   15.2140000  
N 22.5010000   18.4390000   15.1470000  
O 19.3450000   16.4990000   14.1330000  
C 20.5560000   17.0640000   13.9850000  
O 21.1720000   17.0230000   12.9220000  
O 25.0980000   20.5700000   18.7760000  
O 23.0510000   19.8390000   20.4500000  
H 19.9120000   17.0840000   16.8760000  
H 19.0780000   16.6680000   15.0850000  
H 23.0090000   18.7470000   14.2950000  
H 25.3840000   20.9330000   17.9200000  
H 22.3310000   19.4680000   20.9830000  
H 24.7210000   19.8220000   16.1680000  
