76
101 
C 20.5650000   13.1190000   26.8200000  
C 19.8810000   13.6470000   27.9650000  
C 18.9440000   14.5450000   27.9090000  
C 18.5640000   15.1200000   26.7120000  
C 19.2010000   14.8730000   25.4860000  
C 20.3250000   13.9040000   25.4750000  
C 18.0800000   15.2160000   28.8920000  
C 17.2120000   16.1230000   28.2420000  
N 17.5850000   16.0870000   26.9120000  
O 16.0280000   16.9540000   30.2310000  
C 16.1420000   16.8850000   28.9050000  
O 15.4080000   17.6010000   28.2980000  
O 20.9360000   13.6670000   24.4350000  
O 21.3980000   12.2050000   26.7830000  
H 20.0920000   13.1540000   28.8960000  
H 18.0880000   14.9680000   29.9650000  
H 16.8640000   16.5410000   30.6020000  
H 17.2250000   16.6350000   26.1850000  
C 18.7390000   15.7540000   24.3880000  
C 19.5010000   16.8650000   24.1270000  
C 19.1930000   17.7940000   23.1850000  
C 18.0110000   17.6480000   22.4250000  
C 17.1590000   16.5070000   22.7470000  
C 17.5450000   15.5390000   23.7090000  
C 20.8020000   17.2440000   24.6880000  
C 21.0920000   18.5170000   24.0860000  
N 20.2030000   18.7160000   23.0260000  
O 23.0670000   18.8780000   25.3260000  
C 22.2250000   19.4180000   24.4060000  
O 22.4670000   20.4640000   23.8560000  
O 15.8840000   16.5330000   22.1220000  
O 16.8230000   14.4000000   23.8470000  
H 21.2460000   16.8470000   25.6240000  
H 22.7490000   17.9560000   25.4750000  
H 20.1300000   19.5340000   22.4050000  
H 15.8010000   17.3890000   21.6950000  
H 16.2130000   14.2970000   23.1040000  
C 17.6590000   18.6260000   21.3590000  
C 18.4290000   18.5640000   20.1780000  
C 18.2080000   19.5300000   19.2420000  
C 17.2190000   20.5070000   19.2680000  
C 16.3010000   20.4830000   20.3710000  
C 16.5510000   19.5190000   21.4090000  
C 19.3770000   17.6540000   19.6760000  
C 19.7510000   18.2070000   18.4430000  
N 18.9670000   19.3320000   18.1300000  
O 21.2250000   16.4790000   17.6870000  
C 20.5240000   17.6210000   17.3800000  
O 20.6490000   18.1060000   16.2500000  
O 15.2130000   21.2460000   20.3340000  
O 15.6560000   19.5590000   22.4360000  
H 19.7500000   16.7090000   20.1160000  
H 21.0280000   16.3880000   18.5860000  
H 18.8620000   19.8350000   17.2190000  
H 15.2180000   21.6260000   19.4340000  
H 15.0060000   20.2300000   22.2120000  
C 16.8580000   21.2390000   18.0370000  
C 15.8530000   20.7230000   17.1790000  
C 15.7700000   21.1410000   15.8750000  
C 16.5480000   22.2200000   15.3540000  
C 17.4970000   22.7400000   16.2550000  
C 17.7160000   22.2210000   17.5350000  
C 14.9740000   19.6090000   17.2970000  
C 14.2570000   19.5300000   16.1300000  
N 14.7580000   20.4290000   15.2590000  
O 13.0640000   17.5970000   16.7190000  
C 13.2640000   18.4530000   15.7750000  
O 12.5190000   18.4660000   14.8410000  
O 18.3360000   23.7060000   15.7230000  
O 18.8370000   22.5880000   18.2300000  
H 14.7800000   18.9780000   18.1520000  
H 13.8490000   17.8850000   17.2910000  
H 14.3430000   20.7380000   14.3530000  
H 19.0980000   23.7630000   16.2530000  
H 18.9270000   21.7970000   18.7040000  
H 16.5620000   22.6010000   14.3200000  
