76
101 
C 18.2030000   10.4460000   20.7410000  
C 16.7980000   10.1790000   20.3120000  
C 15.8640000   11.2050000   19.9980000  
C 16.1490000   12.5490000   20.1130000  
C 17.4250000   12.9820000   20.6270000  
C 18.4880000   12.0350000   21.0080000  
C 14.4840000   11.0760000   19.5150000  
C 13.9850000   12.3620000   19.3970000  
N 15.0240000   13.2600000   19.7760000  
O 11.8480000   11.8260000   18.4900000  
C 12.6810000   12.8140000   18.9690000  
O 12.2560000   13.9600000   18.8910000  
O 19.5170000   12.4500000   21.4730000  
O 19.0610000    9.5800000   20.8370000  
H 16.5380000    9.1160000   20.2020000  
H 13.9510000   10.1720000   19.2720000  
H 12.3280000   10.9560000   18.4440000  
H 15.0360000   14.2390000   19.7510000  
C 17.5110000   14.3860000   20.9290000  
C 17.4340000   14.9850000   22.2140000  
C 17.4910000   16.2930000   22.3900000  
C 17.7040000   17.2240000   21.3980000  
C 17.8340000   16.6880000   20.0680000  
C 17.8960000   15.2670000   19.8580000  
C 17.2580000   14.4280000   23.5410000  
C 17.2470000   15.4020000   24.4320000  
N 17.3930000   16.5560000   23.7480000  
O 17.1420000   14.0460000   26.3620000  
C 17.1370000   15.3260000   25.9260000  
O 17.1410000   16.3140000   26.6400000  
O 18.1320000   17.5730000   19.0610000  
O 18.2190000   14.7640000   18.6260000  
H 17.0470000   13.3920000   23.7830000  
H 17.2980000   13.4060000   25.6450000  
H 17.6900000   17.4870000   24.1900000  
H 18.2850000   18.3450000   19.5780000  
H 18.2530000   15.5480000   18.0540000  
C 17.8510000   18.6720000   21.6190000  
C 18.9690000   19.3230000   22.2100000  
C 18.9630000   20.6970000   22.4210000  
C 17.8570000   21.5590000   22.2390000  
C 16.7990000   20.9040000   21.5310000  
C 16.8010000   19.5050000   21.1850000  
C 20.2750000   18.9410000   22.6770000  
C 20.9210000   20.0660000   23.1840000  
N 20.0620000   21.1650000   23.0260000  
O 23.0170000   19.0610000   23.5550000  
C 22.3470000   20.1900000   23.5900000  
O 22.9010000   21.2330000   23.9130000  
O 15.7370000   21.6510000   21.1560000  
O 15.7160000   18.9080000   20.6480000  
H 20.7340000   17.9830000   22.5890000  
H 22.4160000   18.2680000   23.4780000  
H 20.1370000   22.0870000   23.3990000  
H 16.0320000   22.6300000   21.2560000  
H 15.1450000   19.5710000   20.2750000  
C 18.0240000   23.0760000   22.4400000  
C 19.0980000   23.7630000   21.8400000  
C 19.3940000   25.0610000   22.1560000  
C 18.6580000   25.7410000   23.0840000  
C 17.5670000   25.1060000   23.6400000  
C 17.2780000   23.7670000   23.4180000  
C 20.1760000   23.3190000   20.9410000  
C 21.0230000   24.4430000   20.8070000  
N 20.5070000   25.5000000   21.5810000  
O 22.5210000   23.3690000   19.3640000  
C 22.2970000   24.4980000   20.0650000  
O 23.1580000   25.3420000   20.0940000  
O 16.8160000   25.7270000   24.5100000  
O 16.1420000   23.1600000   23.9730000  
H 20.3130000   22.3080000   20.5350000  
H 21.6390000   23.0040000   19.3670000  
H 20.8540000   26.4630000   21.5280000  
H 16.1790000   25.1230000   24.8470000  
H 15.9610000   22.2660000   23.6360000  
H 18.9590000   26.7650000   23.2870000  
