76
101 
C 16.5200000   10.6990000   23.0770000  
C 16.8500000   10.0010000   21.8430000  
C 17.2220000   10.7090000   20.7420000  
C 17.2780000   12.1270000   20.7920000  
C 17.2210000   12.9770000   21.8490000  
C 16.8450000   12.3190000   23.1500000  
C 17.4080000   10.2930000   19.4200000  
C 17.5800000   11.4250000   18.6390000  
N 17.5780000   12.5020000   19.5230000  
O 17.7100000   10.4030000   16.4720000  
C 17.6890000   11.6050000   17.1400000  
O 17.8740000   12.7170000   16.5730000  
O 16.8140000   12.9070000   24.1960000  
O 16.1220000   10.0620000   24.0410000  
H 16.7160000    8.8700000   21.8500000  
H 17.4520000    9.2900000   19.0090000  
H 17.5120000    9.6590000   17.0640000  
H 17.7470000   13.4950000   19.2370000  
C 17.5310000   14.3600000   21.5500000  
C 16.6090000   15.3480000   21.9550000  
C 16.9110000   16.7010000   21.8020000  
C 18.1370000   17.1680000   21.3050000  
C 19.0820000   16.1910000   21.0480000  
C 18.8340000   14.8300000   21.1870000  
C 15.2530000   15.2580000   22.4220000  
C 14.7760000   16.5320000   22.5270000  
N 15.8300000   17.4560000   22.1160000  
O 12.6120000   15.8610000   23.4260000  
C 13.4590000   16.9200000   23.0780000  
O 13.0960000   18.0400000   23.2320000  
O 20.3560000   16.5170000   20.6190000  
O 19.8440000   13.8640000   21.0060000  
H 14.7290000   14.3430000   22.5570000  
H 13.1800000   15.0630000   23.4040000  
H 15.7160000   18.4050000   21.8780000  
H 20.3420000   17.2110000   19.8470000  
H 20.6740000   14.3970000   20.9850000  
C 18.4350000   18.6580000   21.2310000  
C 18.2350000   19.4890000   22.3780000  
C 18.3010000   20.8710000   22.2410000  
C 18.4270000   21.5720000   20.9890000  
C 18.6360000   20.7230000   19.8680000  
C 18.6070000   19.3220000   19.9620000  
C 17.9810000   19.1310000   23.7860000  
C 18.0000000   20.3690000   24.4800000  
N 18.1750000   21.4360000   23.5050000  
O 17.5140000   19.4100000   26.5180000  
C 17.6350000   20.5690000   25.8310000  
O 17.4960000   21.6530000   26.3280000  
O 19.1340000   21.2730000   18.6770000  
O 18.8300000   18.6030000   18.7970000  
H 17.6930000   18.1120000   24.1570000  
H 18.0410000   18.8360000   26.0140000  
H 18.1350000   22.4020000   23.7050000  
H 19.4940000   22.1230000   18.9600000  
H 18.8140000   19.2930000   18.1020000  
C 18.7480000   23.0350000   20.9660000  
C 19.7850000   23.6900000   21.7930000  
C 20.1070000   25.0340000   21.7560000  
C 19.3840000   25.9020000   20.8790000  
C 18.3670000   25.3730000   20.0470000  
C 17.9990000   23.9940000   20.1430000  
C 20.8120000   23.1340000   22.6430000  
C 21.5390000   24.1090000   23.2270000  
N 21.1890000   25.3210000   22.5610000  
O 22.1530000   22.7320000   25.0030000  
C 22.3190000   23.9610000   24.4600000  
O 22.9220000   24.8830000   24.9720000  
O 17.6510000   26.2290000   19.3000000  
O 16.8580000   23.6080000   19.4530000  
H 20.8150000   22.0910000   22.9670000  
H 21.6250000   22.3900000   24.2760000  
H 21.6450000   26.1740000   22.6870000  
H 16.9940000   25.6540000   18.7910000  
H 16.5240000   22.8410000   19.8520000  
H 19.6270000   26.9590000   20.7900000  
