76
101 
C 12.3620000   15.8720000   26.4410000  
C 11.2030000   16.5970000   25.7410000  
C 11.3880000   17.3440000   24.6130000  
C 12.6330000   17.4210000   24.0020000  
C 13.7290000   16.8260000   24.4830000  
C 13.7570000   15.9940000   25.7360000  
C 10.4900000   18.0950000   23.8010000  
C 11.2670000   18.6600000   22.7710000  
N 12.5470000   18.1950000   22.9020000  
O  9.5440000   19.8190000   21.5260000  
C 10.8430000   19.4980000   21.5620000  
O 11.6650000   19.9000000   20.7230000  
O 14.7680000   15.3710000   26.1120000  
O 12.1820000   15.2260000   27.4970000  
H 10.2530000   16.4630000   26.2670000  
H  9.4540000   18.2150000   23.9780000  
H  9.2260000   19.4160000   22.3930000  
H 13.2810000   18.3150000   22.2090000  
C 14.9280000   16.8210000   23.6590000  
C 15.6390000   18.0510000   23.6280000  
C 16.5960000   18.2310000   22.7380000  
C 17.0300000   17.2880000   21.7450000  
C 16.3580000   16.0460000   21.8880000  
C 15.3160000   15.8010000   22.7990000  
C 15.3840000   19.3040000   24.3400000  
C 16.1510000   20.2820000   23.7530000  
N 16.9280000   19.5820000   22.7410000  
O 15.1330000   22.1380000   24.9300000  
C 16.1260000   21.7400000   24.0730000  
O 16.8850000   22.5540000   23.6030000  
O 16.5800000   15.0400000   20.9380000  
O 14.7560000   14.5680000   22.8240000  
H 14.8360000   19.4010000   25.2720000  
H 14.6760000   21.3010000   25.0820000  
H 17.2970000   20.0450000   21.9620000  
H 17.1230000   15.3920000   20.1600000  
H 15.0900000   13.9850000   22.0360000  
C 18.2710000   17.6410000   20.9030000  
C 19.5550000   17.8700000   21.5510000  
C 20.6100000   18.2770000   20.8050000  
C 20.5900000   18.4530000   19.4090000  
C 19.3800000   18.1450000   18.6940000  
C 18.2460000   17.7890000   19.4670000  
C 20.0630000   18.0340000   22.8880000  
C 21.3430000   18.4870000   22.8650000  
N 21.7380000   18.6000000   21.4940000  
O 21.6620000   18.7570000   25.2890000  
C 22.2540000   18.7760000   24.0640000  
O 23.4630000   18.9790000   23.9380000  
O 19.3390000   18.2460000   17.3080000  
O 17.0970000   17.5800000   18.7780000  
H 19.5630000   17.8090000   23.7910000  
H 20.7810000   18.4120000   25.2390000  
H 22.6950000   18.9410000   21.1660000  
H 20.1220000   17.8350000   16.9650000  
H 17.1210000   18.0110000   17.8520000  
C 21.8860000   18.8210000   18.7640000  
C 23.0570000   18.0080000   18.7860000  
C 24.2760000   18.4540000   18.2180000  
C 24.3770000   19.7070000   17.5260000  
C 23.2200000   20.5160000   17.5140000  
C 22.0050000   20.1030000   18.1730000  
C 23.2550000   16.6680000   19.3090000  
C 24.6310000   16.3780000   19.0840000  
N 25.2480000   17.4450000   18.4160000  
O 24.2850000   14.1410000   19.8150000  
C 25.1600000   15.0110000   19.1760000  
O 26.2390000   14.6290000   18.7770000  
O 23.2180000   21.7380000   16.8230000  
O 20.9210000   20.8680000   18.1380000  
H 22.4740000   16.0260000   19.7080000  
H 23.5340000   14.6130000   20.0750000  
H 26.2030000   17.5340000   18.2760000  
H 22.3450000   21.9530000   16.5000000  
H 20.1720000   20.4440000   18.5770000  
H 25.3230000   20.0360000   17.0610000  
