76
101 
C 10.5150000   17.5470000   21.5660000  
C 10.1930000   16.0930000   21.9200000  
C 11.1750000   15.2250000   22.3180000  
C 12.5220000   15.5700000   22.3610000  
C 12.9970000   16.8190000   21.9250000  
C 12.0690000   17.8370000   21.3380000  
C 11.1260000   13.8770000   22.6420000  
C 12.4180000   13.4180000   22.9690000  
N 13.2710000   14.5010000   22.7630000  
O 11.6220000   11.2150000   23.3440000  
C 12.6850000   12.0290000   23.2890000  
O 13.8180000   11.6790000   23.4800000  
O 12.4760000   18.8140000   20.7630000  
O  9.6440000   18.4230000   21.4590000  
H  9.1830000   15.8010000   21.8550000  
H 10.2730000   13.3040000   22.5460000  
H 10.8440000   11.7350000   23.3500000  
H 14.2970000   14.5270000   22.7710000  
C 14.4520000   17.0200000   21.9430000  
C 15.2290000   16.9920000   20.7790000  
C 16.5840000   17.2470000   20.8430000  
C 17.2550000   17.5370000   21.9910000  
C 16.5050000   17.4670000   23.2080000  
C 15.1370000   17.2190000   23.1520000  
C 14.9020000   16.8580000   19.4070000  
C 16.1340000   16.8740000   18.7080000  
N 17.1850000   17.0980000   19.6120000  
O 15.1670000   16.5210000   16.5170000  
C 16.3070000   16.6900000   17.2350000  
O 17.3760000   16.7980000   16.6590000  
O 17.1110000   17.6840000   24.3580000  
O 14.5270000   17.2830000   24.3810000  
H 14.0220000   16.5880000   18.8460000  
H 14.4070000   16.2190000   17.0850000  
H 18.1510000   17.3110000   19.3950000  
H 18.0100000   17.5710000   24.0370000  
H 15.0520000   17.9130000   24.9500000  
C 18.7010000   17.8590000   21.9760000  
C 19.2550000   19.0670000   21.3950000  
C 20.6150000   19.3050000   21.3800000  
C 21.5190000   18.5660000   22.0970000  
C 21.0250000   17.3930000   22.6540000  
C 19.6560000   17.0480000   22.6620000  
C 18.7160000   20.0890000   20.4830000  
C 19.7420000   21.0000000   20.1910000  
N 20.9360000   20.4180000   20.5820000  
O 18.3540000   22.5960000   19.2190000  
C 19.6120000   22.3050000   19.5920000  
O 20.5240000   23.1070000   19.5190000  
O 21.9080000   16.6430000   23.3600000  
O 19.2650000   15.9350000   23.2850000  
H 17.6710000   20.1950000   20.5340000  
H 17.7370000   21.8150000   19.4290000  
H 21.8020000   20.8900000   20.3760000  
H 22.7770000   17.0150000   23.3190000  
H 20.1000000   15.5400000   23.6200000  
C 22.9770000   18.9620000   22.0780000  
C 23.4750000   20.1260000   22.6840000  
C 24.7720000   20.5100000   22.5900000  
C 25.6590000   19.7050000   21.8340000  
C 25.2070000   18.5310000   21.1680000  
C 23.9080000   18.1900000   21.3390000  
C 22.7700000   21.2180000   23.3580000  
C 23.7070000   22.1860000   23.6950000  
N 24.9750000   21.7330000   23.2020000  
O 22.1580000   23.7000000   24.8310000  
C 23.4570000   23.4890000   24.4150000  
O 24.3170000   24.2780000   24.7600000  
O 26.0100000   17.7220000   20.4070000  
O 23.4070000   17.0430000   20.7300000  
H 21.7050000   21.3160000   23.6010000  
H 21.6510000   23.0600000   24.3180000  
H 25.8350000   22.3170000   23.1690000  
H 25.5580000   16.9080000   20.2180000  
H 22.7100000   16.7310000   21.4350000  
H 26.6960000   19.9710000   21.7580000  
