76
101 
C 19.6740000   18.5140000   29.2570000  
C 18.3490000   17.9660000   29.7890000  
C 17.4500000   17.3560000   28.9100000  
C 17.7470000   17.1660000   27.5330000  
C 18.8940000   17.6780000   26.9130000  
C 19.8550000   18.4130000   27.7510000  
C 16.1930000   16.7110000   29.1340000  
C 15.7280000   16.2720000   27.8870000  
N 16.7810000   16.4690000   26.9570000  
O 13.5770000   15.4700000   28.5290000  
C 14.4200000   15.6720000   27.5340000  
O 14.1870000   15.3400000   26.3830000  
O 20.7360000   19.1140000   27.2230000  
O 20.4790000   19.0500000   29.9550000  
H 18.1440000   18.1230000   30.8400000  
H 15.7190000   16.6690000   30.0810000  
H 14.0690000   15.6450000   29.3850000  
H 16.8570000   16.2180000   25.9840000  
C 18.7580000   17.6680000   25.4370000  
C 17.7670000   18.4950000   24.8110000  
C 17.5880000   18.3950000   23.4690000  
C 18.2110000   17.4560000   22.6050000  
C 19.2210000   16.6360000   23.2610000  
C 19.4970000   16.7600000   24.6470000  
C 16.9290000   19.5500000   25.3280000  
C 16.3240000   20.1580000   24.1830000  
N 16.6610000   19.3530000   23.0260000  
O 15.2550000   21.9390000   25.4650000  
C 15.5120000   21.3610000   24.2300000  
O 14.9130000   21.8240000   23.2740000  
O 20.0190000   15.8080000   22.4920000  
O 20.3350000   15.8790000   25.2120000  
H 16.6940000   19.9120000   26.3730000  
H 15.7510000   21.3320000   26.0970000  
H 16.4710000   19.5410000   22.0150000  
H 19.8270000   15.7550000   21.5180000  
H 20.5470000   15.1860000   24.6040000  
C 18.0640000   17.4610000   21.1020000  
C 18.3310000   18.6470000   20.3680000  
C 18.2080000   18.7400000   18.9940000  
C 17.6800000   17.6970000   18.2340000  
C 17.4560000   16.5010000   18.8900000  
C 17.6020000   16.3450000   20.2920000  
C 18.7370000   19.9810000   20.7990000  
C 18.8470000   20.7750000   19.6300000  
N 18.5670000   19.9750000   18.4780000  
O 19.6740000   22.7430000   20.8050000  
C 19.3430000   22.2000000   19.5780000  
O 19.4340000   22.7590000   18.4560000  
O 16.8900000   15.5020000   18.1470000  
O 17.1950000   15.1870000   20.8470000  
H 18.8460000   20.2220000   21.8730000  
H 19.4950000   21.9860000   21.3980000  
H 18.5000000   20.2630000   17.5260000  
H 16.8410000   15.8120000   17.2130000  
H 16.7040000   14.7170000   20.1600000  
C 17.5710000   17.8550000   16.7550000  
C 18.4290000   17.1670000   15.8580000  
C 18.4490000   17.4780000   14.5090000  
C 17.6170000   18.4490000   13.9350000  
C 16.6490000   19.1290000   14.8010000  
C 16.6530000   18.7980000   16.1650000  
C 19.5530000   16.3330000   16.1300000  
C 20.2280000   16.2460000   14.8980000  
N 19.4430000   16.8770000   13.8340000  
O 22.0840000   14.9500000   15.6810000  
C 21.4680000   15.5090000   14.6110000  
O 21.9400000   15.3700000   13.4940000  
O 15.8040000   20.1010000   14.2860000  
O 15.8290000   19.5150000   17.0060000  
H 19.8750000   16.0190000   17.1750000  
H 21.6660000   15.3320000   16.4440000  
H 19.7490000   17.0270000   12.8650000  
H 15.2080000   20.3580000   14.9660000  
H 15.8640000   19.0920000   17.9170000  
H 17.5870000   18.7770000   12.8750000  
