76
101 
C 11.5190000   20.0590000   25.0510000  
C 11.8770000   20.1690000   26.4990000  
C 13.2040000   20.0020000   26.8410000  
C 14.2250000   19.8820000   25.9050000  
C 14.0030000   19.7340000   24.5750000  
C 12.6850000   19.8330000   24.0260000  
C 13.8670000   20.1170000   28.1550000  
C 15.2870000   19.9250000   28.0180000  
N 15.4120000   19.7990000   26.6130000  
O 15.9800000   20.0410000   30.3130000  
C 16.3250000   19.9110000   28.9970000  
O 17.5290000   19.8250000   28.7560000  
O 12.4570000   19.5970000   22.8480000  
O 10.3210000   20.1970000   24.6750000  
H 11.0780000   20.3840000   27.1150000  
H 13.3220000   20.3950000   29.0970000  
H 15.0150000   20.2220000   30.4480000  
H 16.2740000   19.6330000   26.1340000  
C 15.1780000   19.3880000   23.8670000  
C 15.4000000   18.0940000   23.3740000  
C 16.3890000   17.8930000   22.4890000  
C 17.4260000   18.7630000   22.0900000  
C 17.3140000   19.9750000   22.7550000  
C 16.1990000   20.3420000   23.5060000  
C 14.4960000   16.9950000   23.4800000  
C 15.2000000   15.9850000   22.7470000  
N 16.3690000   16.5520000   22.1290000  
O 13.7770000   14.2050000   23.2910000  
C 14.8950000   14.5380000   22.5940000  
O 15.5250000   13.8120000   21.8210000  
O 18.1640000   20.9770000   22.3400000  
O 16.1170000   21.6730000   23.8550000  
H 13.6770000   16.9580000   24.1650000  
H 13.5500000   15.1060000   23.6600000  
H 16.9880000   16.1420000   21.4830000  
H 18.9100000   20.5670000   21.7900000  
H 16.9560000   22.0230000   23.4350000  
C 18.6170000   18.3350000   21.2940000  
C 18.4400000   17.7170000   20.0210000  
C 19.4260000   16.9970000   19.4030000  
C 20.7300000   16.8950000   19.9640000  
C 20.9440000   17.4830000   21.2340000  
C 19.8990000   18.2170000   21.9100000  
C 17.3130000   17.6870000   19.1210000  
C 17.6980000   17.0370000   17.9370000  
N 19.0600000   16.5880000   18.1230000  
O 15.6610000   17.1520000   16.7160000  
C 16.9150000   16.6640000   16.7350000  
O 17.3190000   16.0290000   15.7300000  
O 22.1880000   17.4790000   21.8050000  
O 20.1060000   18.8080000   23.1490000  
H 16.3190000   18.0910000   19.2770000  
H 15.5650000   17.6170000   17.5440000  
H 19.6390000   16.2460000   17.4540000  
H 22.7630000   17.0390000   21.1320000  
H 21.0820000   18.6840000   23.3130000  
C 21.8820000   16.2860000   19.1840000  
C 22.6790000   17.2050000   18.5360000  
C 23.7250000   16.8260000   17.7180000  
C 24.0950000   15.5080000   17.5390000  
C 23.5010000   14.5440000   18.4230000  
C 22.3280000   14.9030000   19.1550000  
C 22.6210000   18.6240000   18.3970000  
C 23.5690000   19.0200000   17.4320000  
N 24.2750000   17.8740000   17.0390000  
O 23.0120000   21.3280000   17.4050000  
C 23.7560000   20.3460000   16.9610000  
O 24.5030000   20.5110000   15.9870000  
O 23.8450000   13.2290000   18.3920000  
O 21.6980000   13.9520000   19.9290000  
H 21.9500000   19.2860000   18.9850000  
H 22.4750000   20.8730000   18.0920000  
H 24.9520000   17.7820000   16.2510000  
H 23.3140000   12.7850000   19.1010000  
H 21.1650000   14.4040000   20.6560000  
H 24.9600000   15.2040000   16.9560000  
