76
101 
C 17.4950000   18.5280000   29.3830000  
C 18.2690000   17.3140000   29.7480000  
C 18.8100000   16.5110000   28.8310000  
C 18.8020000   16.8080000   27.4670000  
C 18.1750000   17.8960000   26.9460000  
C 17.3350000   18.7590000   27.8250000  
C 19.5560000   15.3310000   28.9780000  
C 20.0940000   14.9870000   27.6850000  
N 19.6490000   15.9720000   26.8090000  
O 21.2920000   13.1060000   28.4100000  
C 21.0360000   13.8990000   27.3610000  
O 21.5590000   13.6520000   26.2760000  
O 16.5440000   19.5510000   27.3830000  
O 16.9240000   19.2870000   30.2120000  
H 18.2890000   17.0650000   30.8610000  
H 19.5960000   14.8060000   29.9090000  
H 20.8360000   13.6100000   29.0910000  
H 19.9720000   16.1750000   25.8030000  
C 18.2490000   17.9900000   25.5320000  
C 17.1350000   17.7150000   24.7700000  
C 17.2010000   17.6770000   23.3920000  
C 18.2780000   18.0770000   22.6220000  
C 19.3030000   18.5810000   23.4360000  
C 19.3750000   18.5140000   24.8880000  
C 15.8570000   17.1850000   25.0900000  
C 15.2310000   16.9560000   23.8520000  
N 16.0700000   17.2100000   22.7970000  
O 13.1290000   16.2100000   24.7430000  
C 13.8490000   16.5840000   23.6550000  
O 13.2870000   16.5970000   22.5560000  
O 20.4490000   19.0460000   22.7970000  
O 20.5140000   18.7620000   25.5470000  
H 15.4010000   17.1640000   26.0570000  
H 13.7790000   16.4350000   25.4490000  
H 15.8110000   17.3400000   21.8150000  
H 20.3500000   18.7270000   21.8970000  
H 21.1120000   19.0320000   24.8230000  
C 18.3210000   18.3010000   21.1570000  
C 17.4490000   19.2050000   20.5310000  
C 17.3750000   19.2900000   19.1340000  
C 17.9550000   18.4450000   18.2220000  
C 18.8260000   17.4960000   18.8220000  
C 19.0430000   17.4410000   20.2480000  
C 16.3860000   20.1190000   21.0220000  
C 15.7170000   20.5520000   19.9130000  
N 16.3520000   20.1560000   18.7340000  
O 14.1030000   21.8290000   21.0320000  
C 14.5400000   21.4450000   19.8760000  
O 14.0070000   21.8940000   18.8040000  
O 19.3130000   16.5470000   17.9490000  
O 19.8350000   16.4340000   20.8070000  
H 16.0120000   20.3630000   22.0160000  
H 14.8070000   21.5520000   21.6750000  
H 16.0880000   20.3520000   17.7400000  
H 19.2720000   16.9140000   17.0490000  
H 20.0160000   15.7440000   20.1440000  
C 17.7810000   18.5270000   16.7300000  
C 18.9190000   18.6820000   15.9220000  
C 18.7930000   18.6490000   14.5760000  
C 17.5680000   18.4000000   13.9630000  
C 16.4510000   18.2420000   14.7610000  
C 16.4830000   18.3270000   16.1710000  
C 20.2840000   19.0200000   16.2500000  
C 20.9000000   19.1280000   15.0170000  
N 19.9910000   18.9360000   13.9370000  
O 22.9820000   19.8950000   15.8750000  
C 22.2390000   19.6170000   14.7640000  
O 22.7080000   19.9310000   13.6710000  
O 15.2830000   18.0060000   14.1150000  
O 15.3410000   18.1620000   16.9020000  
H 20.6500000   19.4150000   17.1780000  
H 22.2990000   19.9890000   16.6310000  
H 20.1940000   18.6990000   12.9620000  
H 14.5740000   17.9280000   14.8310000  
H 15.5970000   18.2390000   17.8310000  
H 17.4980000   18.3690000   12.8390000  
