76
101 
C 18.5090000   10.4270000   22.9700000  
C 17.8990000    9.9720000   21.7200000  
C 17.6120000   10.8860000   20.7320000  
C 17.8480000   12.2480000   20.7880000  
C 18.5490000   12.8320000   21.8460000  
C 19.0390000   11.9130000   22.9770000  
C 17.0500000   10.6800000   19.5020000  
C 16.8600000   11.9000000   18.8010000  
N 17.2790000   12.9100000   19.7070000  
O 15.8460000   10.9440000   16.8860000  
C 16.2570000   12.1080000   17.4460000  
O 16.0980000   13.1790000   16.9620000  
O 19.7330000   12.2420000   23.9160000  
O 18.5330000    9.8300000   23.9950000  
H 17.6880000    8.9410000   21.6640000  
H 16.8210000    9.7040000   19.1110000  
H 16.3510000   10.1660000   17.2830000  
H 17.3670000   13.9400000   19.6670000  
C 18.6360000   14.2760000   22.0090000  
C 17.5010000   15.0070000   22.4630000  
C 17.5490000   16.3370000   22.5530000  
C 18.6020000   17.1530000   22.0660000  
C 19.6650000   16.4440000   21.4700000  
C 19.7650000   15.0260000   21.5530000  
C 16.1620000   14.5660000   22.7980000  
C 15.4870000   15.6920000   23.2750000  
N 16.3660000   16.7990000   23.1000000  
O 13.4220000   14.6320000   23.7710000  
C 14.1180000   15.7790000   23.8770000  
O 13.6000000   16.7780000   24.2950000  
O 20.6520000   17.1140000   20.8530000  
O 20.8300000   14.3300000   20.9650000  
H 15.8990000   13.5830000   22.9040000  
H 14.0210000   13.9290000   23.4970000  
H 16.2210000   17.7210000   23.4680000  
H 20.4120000   18.0420000   20.6550000  
H 21.4370000   15.0370000   20.6460000  
C 18.5120000   18.6310000   21.9910000  
C 18.6540000   19.4470000   23.0830000  
C 18.4980000   20.8100000   22.9160000  
C 18.2230000   21.4260000   21.7450000  
C 17.9690000   20.5720000   20.6540000  
C 18.1160000   19.2090000   20.7770000  
C 18.9440000   19.2990000   24.4730000  
C 18.8930000   20.5820000   25.0680000  
N 18.7690000   21.5300000   24.0570000  
O 19.2260000   20.0330000   27.5050000  
C 19.0580000   20.9950000   26.5320000  
O 19.1080000   22.2010000   26.7910000  
O 17.6560000   21.0950000   19.3940000  
O 17.9000000   18.4180000   19.6700000  
H 18.9100000   18.3500000   25.0010000  
H 18.9750000   19.1560000   27.1780000  
H 18.5870000   22.4560000   24.3160000  
H 17.8400000   22.0170000   19.3890000  
H 17.5760000   18.9530000   18.9160000  
C 17.8700000   22.8900000   21.5740000  
C 18.5610000   23.8270000   20.7220000  
C 18.3200000   25.1960000   20.8090000  
C 17.1760000   25.6520000   21.4270000  
C 16.3530000   24.7480000   22.1230000  
C 16.7490000   23.4030000   22.2760000  
C 19.7170000   23.5960000   19.9150000  
C 20.1090000   24.8670000   19.4420000  
N 19.2240000   25.8110000   19.9140000  
O 22.0740000   24.1460000   18.1730000  
C 21.1650000   25.1490000   18.4710000  
O 21.3100000   26.2980000   18.0840000  
O 15.3180000   25.2130000   22.8520000  
O 15.9660000   22.6470000   23.1220000  
H 20.0800000   22.5810000   19.6400000  
H 21.7020000   23.3970000   18.5420000  
H 19.1960000   26.8160000   19.6880000  
H 14.9600000   24.5250000   23.4880000  
H 16.1990000   21.7560000   22.9750000  
H 16.9090000   26.7120000   21.4090000  
