76
101 
C 12.8540000   15.8520000   26.5580000  
C 11.6010000   16.6740000   26.2730000  
C 11.6260000   17.5750000   25.2880000  
C 12.7240000   17.8090000   24.4240000  
C 13.8940000   17.1770000   24.5430000  
C 14.0820000   16.1840000   25.6280000  
C 10.6780000   18.5580000   24.9580000  
C 11.1930000   19.4030000   23.9430000  
N 12.4670000   18.9170000   23.5770000  
O  9.2070000   20.7120000   23.7950000  
C 10.5440000   20.6270000   23.4130000  
O 11.0650000   21.3800000   22.6210000  
O 15.1620000   15.7550000   25.8900000  
O 12.9360000   15.1140000   27.5230000  
H 10.8010000   16.6560000   27.0110000  
H  9.7540000   18.6810000   25.4980000  
H  9.0450000   19.7780000   24.1470000  
H 13.1120000   19.1940000   22.8290000  
C 14.9300000   17.7350000   23.6610000  
C 16.0140000   18.4410000   24.1650000  
C 17.1110000   18.7070000   23.4090000  
C 17.1990000   18.4180000   22.0060000  
C 16.0170000   17.8100000   21.4750000  
C 14.9090000   17.4870000   22.2580000  
C 16.4520000   18.8480000   25.5200000  
C 17.7610000   19.3600000   25.4220000  
N 18.1380000   19.2880000   24.1060000  
O 17.8310000   19.9380000   27.7390000  
C 18.5370000   19.9510000   26.6190000  
O 19.6250000   20.4340000   26.5510000  
O 15.9060000   17.4760000   20.1350000  
O 13.8670000   16.7290000   21.7830000  
H 15.7350000   19.0960000   26.2820000  
H 17.0120000   19.3750000   27.6100000  
H 19.0680000   19.5290000   23.7030000  
H 16.6930000   17.6430000   19.5590000  
H 14.0900000   16.3660000   20.9290000  
C 18.3690000   18.6530000   21.1920000  
C 19.5190000   17.9230000   21.3940000  
C 20.6120000   18.0360000   20.6020000  
C 20.7490000   18.9420000   19.5430000  
C 19.6180000   19.8240000   19.3880000  
C 18.4420000   19.7080000   20.2120000  
C 19.6500000   16.6410000   22.0250000  
C 20.8650000   16.1350000   21.6350000  
N 21.5580000   17.0900000   20.8700000  
O 20.5300000   14.0760000   22.6790000  
C 21.2750000   14.7460000   21.8110000  
O 22.2110000   14.2470000   21.2360000  
O 19.5940000   20.7290000   18.3370000  
O 17.4390000   20.5490000   20.0640000  
H 19.0400000   16.1910000   22.8680000  
H 19.8450000   14.6280000   23.0230000  
H 22.3800000   16.8390000   20.2920000  
H 20.5090000   20.7640000   17.9460000  
H 17.7120000   21.1680000   19.3930000  
C 22.0090000   19.1040000   18.6920000  
C 22.4100000   18.0280000   17.8400000  
C 23.5590000   18.1540000   17.1050000  
C 24.3860000   19.3020000   17.1170000  
C 24.0880000   20.3130000   18.0520000  
C 22.9220000   20.1760000   18.8440000  
C 21.8590000   16.7410000   17.4640000  
C 22.7000000   16.2030000   16.4900000  
N 23.7600000   17.0410000   16.3070000  
O 21.4520000   14.2360000   16.2310000  
C 22.5360000   14.9350000   15.8360000  
O 23.3000000   14.5420000   14.9870000  
O 24.9860000   21.3920000   18.2380000  
O 22.7620000   21.0670000   19.8430000  
H 20.8980000   16.3110000   17.8230000  
H 21.1060000   14.6940000   16.9630000  
H 24.4010000   16.7860000   15.6160000  
H 24.4920000   22.0460000   17.7890000  
H 22.1000000   20.6620000   20.4190000  
H 25.2910000   19.3840000   16.4900000  
