76
101 
C 14.3390000   11.6390000   19.7550000  
C 12.9040000   12.0900000   19.6770000  
C 12.5860000   13.3810000   19.7250000  
C 13.5580000   14.3560000   19.8960000  
C 14.9400000   14.1450000   20.1140000  
C 15.4370000   12.7970000   20.0360000  
C 11.3750000   14.0990000   19.8950000  
C 11.5800000   15.4820000   19.9850000  
N 12.9860000   15.5610000   20.1200000  
O  9.3760000   16.2430000   20.5010000  
C 10.6710000   16.5750000   20.2840000  
O 11.0780000   17.6690000   20.4390000  
O 16.6010000   12.5300000   20.0810000  
O 14.6600000   10.5000000   19.6910000  
H 12.1410000   11.2980000   19.5990000  
H 10.4270000   13.5700000   19.8980000  
H  9.2780000   15.3800000   20.0940000  
H 13.4530000   16.4540000   20.3310000  
C 15.8010000   15.2450000   20.5330000  
C 16.4440000   15.2100000   21.7400000  
C 17.2780000   16.2700000   22.1280000  
C 17.4430000   17.4700000   21.4660000  
C 16.7470000   17.4960000   20.2310000  
C 15.9770000   16.4320000   19.7930000  
C 16.3600000   14.3690000   22.9110000  
C 17.2500000   14.9560000   23.8800000  
N 17.9240000   16.0260000   23.3180000  
O 16.8460000   13.1400000   25.4670000  
C 17.4740000   14.2980000   25.1410000  
O 18.1790000   14.8080000   25.9940000  
O 16.8120000   18.6690000   19.4760000  
O 15.4190000   16.3940000   18.5530000  
H 15.6940000   13.5280000   23.0770000  
H 16.2750000   12.9160000   24.7270000  
H 18.7100000   16.5530000   23.6200000  
H 17.1170000   19.3590000   20.1360000  
H 15.6010000   17.2880000   18.1620000  
C 18.3530000   18.6180000   21.9160000  
C 19.7570000   18.5290000   21.9070000  
C 20.6000000   19.4840000   22.3630000  
C 20.0810000   20.7090000   22.8160000  
C 18.6870000   20.8630000   22.7490000  
C 17.7820000   19.8120000   22.3300000  
C 20.6220000   17.4240000   21.4360000  
C 21.9410000   17.7870000   21.7830000  
N 21.9550000   19.0960000   22.2580000  
O 22.8950000   15.6570000   21.2780000  
C 23.1220000   16.9160000   21.6470000  
O 24.2760000   17.2670000   21.8220000  
O 18.1200000   21.9690000   23.2220000  
O 16.4270000   19.9900000   22.4340000  
H 20.2780000   16.5120000   20.9350000  
H 21.9400000   15.6090000   20.9590000  
H 22.7700000   19.6070000   22.4870000  
H 18.8540000   22.5850000   23.4490000  
H 16.1730000   20.8920000   22.6830000  
C 20.9920000   21.7290000   23.3470000  
C 21.3150000   22.8710000   22.4850000  
C 22.4260000   23.6890000   22.6910000  
C 23.2470000   23.4520000   23.8170000  
C 22.9260000   22.3840000   24.7340000  
C 21.8370000   21.5380000   24.4680000  
C 20.6390000   23.3570000   21.2780000  
C 21.4210000   24.4610000   20.8290000  
N 22.5010000   24.6620000   21.6900000  
O 19.9730000   25.0960000   19.1470000  
C 21.1260000   25.4300000   19.7430000  
O 21.8260000   26.3720000   19.4110000  
O 23.6840000   22.2640000   25.9230000  
O 21.4310000   20.5070000   25.2290000  
H 19.6480000   23.0770000   20.8760000  
H 19.7700000   24.2730000   19.5600000  
H 23.0420000   25.5150000   21.7810000  
H 23.3240000   21.4960000   26.4620000  
H 20.5780000   20.1660000   24.9460000  
H 24.1130000   24.1260000   23.9930000  
