76
101 
C 18.8070000   11.3120000   25.4350000  
C 19.2290000   10.4530000   24.3760000  
C 19.4980000   11.0450000   23.1320000  
C 19.4500000   12.4380000   22.8940000  
C 19.2290000   13.3640000   23.8680000  
C 18.8820000   12.8950000   25.2590000  
C 19.9130000   10.4890000   21.8670000  
C 20.0910000   11.4950000   20.9100000  
N 19.7240000   12.6410000   21.5800000  
O 20.8530000   10.2190000   18.9880000  
C 20.4980000   11.4430000   19.4840000  
O 20.3720000   12.3430000   18.6920000  
O 18.6180000   13.6450000   26.1480000  
O 18.5400000   10.8440000   26.5250000  
H 19.2820000    9.3770000   24.5340000  
H 20.0220000    9.3950000   21.7210000  
H 21.0830000    9.6800000   19.7540000  
H 19.6280000   13.4740000   21.1060000  
C 19.1760000   14.7240000   23.3130000  
C 17.9220000   15.1210000   22.6950000  
C 17.8150000   16.3950000   22.1410000  
C 18.8490000   17.4030000   22.1370000  
C 20.0420000   17.0430000   22.7960000  
C 20.1580000   15.7450000   23.4320000  
C 16.6220000   14.4900000   22.4610000  
C 15.8170000   15.4860000   21.9010000  
N 16.5930000   16.6040000   21.5640000  
O 13.9130000   14.1060000   21.6820000  
C 14.4420000   15.3350000   21.4220000  
O 13.8350000   16.3280000   20.9900000  
O 20.9340000   18.0040000   23.0100000  
O 21.3730000   15.3160000   23.9970000  
H 16.2550000   13.4850000   22.5730000  
H 14.5790000   13.8140000   22.2630000  
H 16.3710000   17.3360000   20.8780000  
H 20.4750000   18.8080000   22.6760000  
H 21.9340000   16.1280000   24.1530000  
C 18.5440000   18.8210000   21.6420000  
C 17.4530000   19.5700000   22.1130000  
C 17.0980000   20.7200000   21.4980000  
C 17.6430000   21.2620000   20.3180000  
C 18.7370000   20.4880000   19.8180000  
C 19.1890000   19.2820000   20.4540000  
C 16.6020000   19.4110000   23.2220000  
C 15.6380000   20.4470000   23.1730000  
N 16.0030000   21.3290000   22.1480000  
O 14.2460000   19.2930000   24.6970000  
C 14.3810000   20.4140000   23.9780000  
O 13.5710000   21.3330000   23.9770000  
O 19.3080000   20.8980000   18.6770000  
O 20.2400000   18.5600000   19.8670000  
H 16.6660000   18.5040000   23.8370000  
H 14.6240000   18.6630000   24.1200000  
H 15.5100000   22.1740000   21.8910000  
H 18.8740000   21.7580000   18.4050000  
H 20.5470000   18.9960000   19.0520000  
C 17.1970000   22.4930000   19.6980000  
C 17.7450000   23.7050000   20.1620000  
C 17.5460000   24.9340000   19.5300000  
C 16.8830000   25.0130000   18.3430000  
C 16.3210000   23.8320000   17.8330000  
C 16.5320000   22.5910000   18.4820000  
C 18.6680000   23.9410000   21.2060000  
C 18.9570000   25.2750000   21.2090000  
N 18.2840000   25.9150000   20.1440000  
O 20.0230000   25.2480000   23.2760000  
C 19.5660000   25.9830000   22.2870000  
O 19.7060000   27.1910000   22.3450000  
O 15.5710000   23.8820000   16.6730000  
O 15.9730000   21.5200000   17.9230000  
H 18.9750000   23.2680000   21.9370000  
H 19.7680000   24.3390000   23.0960000  
H 18.1060000   26.8690000   19.9840000  
H 15.3520000   23.0000000   16.4640000  
H 16.1040000   20.7630000   18.4700000  
H 16.8350000   25.9740000   17.8850000  
