76
101 
C 10.9950000   19.5780000   23.9900000  
C 11.1300000   20.1580000   25.3370000  
C 12.3360000   20.3580000   25.9470000  
C 13.4130000   19.9790000   25.2270000  
C 13.5270000   19.4450000   24.0130000  
C 12.2660000   19.1850000   23.2500000  
C 12.8060000   20.9010000   27.2020000  
C 14.1570000   20.6650000   27.2640000  
N 14.5100000   20.0990000   26.0280000  
O 14.6670000   21.4570000   29.4330000  
C 15.1680000   20.8790000   28.3430000  
O 16.3760000   20.7040000   28.1680000  
O 12.2790000   18.5860000   22.1600000  
O  9.8490000   19.4870000   23.5560000  
H 10.1770000   20.3710000   25.8060000  
H 12.1280000   21.3300000   27.9870000  
H 13.7100000   21.5680000   29.3000000  
H 15.4730000   19.8770000   25.8280000  
C 14.8290000   19.1320000   23.4920000  
C 15.1800000   17.8030000   23.2480000  
C 16.3840000   17.5400000   22.7280000  
C 17.4570000   18.3860000   22.4580000  
C 17.1090000   19.7290000   22.7590000  
C 15.8400000   20.0610000   23.2510000  
C 14.4380000   16.5600000   23.3250000  
C 15.3140000   15.5170000   23.0690000  
N 16.5370000   16.1670000   22.7200000  
O 13.8080000   13.7010000   23.4230000  
C 15.1160000   14.0770000   23.2110000  
O 16.0270000   13.2350000   23.1340000  
O 18.0050000   20.7050000   22.7330000  
O 15.6120000   21.4140000   23.5740000  
H 13.4840000   16.3620000   23.7310000  
H 13.2440000   14.5180000   23.3970000  
H 17.4840000   15.7020000   22.7000000  
H 18.8610000   20.2610000   22.6120000  
H 16.2860000   21.8970000   22.9700000  
C 18.7770000   18.0500000   21.8630000  
C 18.7930000   17.5310000   20.5250000  
C 20.0290000   17.3690000   19.8950000  
C 21.3440000   17.4610000   20.4810000  
C 21.2340000   17.9100000   21.7900000  
C 20.0380000   18.2800000   22.4680000  
C 17.7870000   17.1100000   19.6480000  
C 18.4720000   16.5310000   18.5840000  
N 19.8490000   16.7700000   18.6730000  
O 16.5690000   15.4800000   17.6320000  
C 17.9160000   15.6920000   17.5190000  
O 18.6000000   15.1380000   16.6880000  
O 22.4820000   18.1300000   22.3920000  
O 20.0750000   18.6840000   23.7960000  
H 16.7510000   17.0420000   19.8260000  
H 16.4090000   16.0240000   18.3590000  
H 20.5270000   16.3220000   18.0000000  
H 23.2310000   18.1650000   21.8240000  
H 20.9790000   18.6590000   24.1340000  
C 22.5750000   17.0620000   19.6870000  
C 22.9640000   17.7270000   18.5200000  
C 24.0340000   17.2870000   17.7860000  
C 24.8140000   16.2200000   18.1430000  
C 24.4450000   15.4850000   19.3220000  
C 23.3400000   15.8900000   20.0700000  
C 22.4540000   18.9050000   17.7950000  
C 23.2430000   19.0000000   16.6640000  
N 24.2490000   18.0400000   16.6260000  
O 22.3120000   20.9720000   15.7320000  
C 23.2200000   19.9770000   15.6060000  
O 23.9080000   19.9270000   14.5760000  
O 25.1380000   14.3270000   19.6600000  
O 22.9710000   15.3040000   21.2790000  
H 21.8270000   19.6730000   18.1750000  
H 22.0510000   20.9660000   16.6950000  
H 25.0820000   18.0170000   16.0630000  
H 24.5080000   13.8780000   20.2550000  
H 22.1430000   15.7160000   21.5440000  
H 25.7340000   15.9160000   17.6120000  
