76
101 
C 11.4460000   14.3590000   22.6110000  
C 10.4740000   15.4000000   22.2330000  
C 10.8460000   16.6410000   21.7700000  
C 12.1890000   16.9720000   21.6340000  
C 13.2620000   16.1630000   21.9280000  
C 12.9670000   14.7920000   22.4980000  
C 10.1150000   17.7790000   21.5570000  
C 10.9970000   18.8310000   21.3810000  
N 12.2780000   18.3020000   21.3620000  
O  9.3800000   20.6530000   21.2250000  
C 10.6870000   20.2490000   21.1930000  
O 11.6090000   21.0680000   21.0400000  
O 13.8450000   13.9910000   22.7020000  
O 11.0580000   13.2720000   23.0970000  
H  9.4710000   15.1830000   22.2630000  
H  8.9950000   17.7680000   21.6520000  
H  8.8230000   19.8310000   21.4800000  
H 13.1130000   18.8610000   21.2460000  
C 14.5920000   16.6970000   21.6540000  
C 15.3220000   17.2740000   22.7270000  
C 16.5300000   17.8590000   22.4370000  
C 17.1630000   17.8280000   21.1980000  
C 16.4540000   17.1550000   20.1530000  
C 15.1570000   16.6380000   20.3810000  
C 14.9470000   17.8000000   24.1010000  
C 15.9630000   18.7200000   24.4230000  
N 16.9990000   18.6380000   23.4570000  
O 14.7990000   19.7270000   26.2330000  
C 15.9520000   19.7680000   25.5190000  
O 16.8370000   20.6340000   25.6680000  
O 17.0200000   17.1070000   18.9390000  
O 14.4830000   16.0520000   19.3740000  
H 13.9180000   17.7750000   24.4580000  
H 14.1960000   19.0810000   25.7600000  
H 17.9310000   19.0530000   23.4900000  
H 17.8730000   17.7080000   18.9990000  
H 14.9980000   16.0820000   18.6080000  
C 18.5560000   18.3900000   21.0450000  
C 19.5680000   17.8650000   21.9140000  
C 20.8250000   18.3930000   21.9950000  
C 21.2780000   19.4220000   21.2000000  
C 20.2900000   20.0170000   20.3590000  
C 18.9450000   19.5350000   20.2450000  
C 19.4590000   16.9290000   22.9610000  
C 20.7120000   16.9070000   23.6480000  
N 21.5320000   17.9120000   23.0510000  
O 20.1870000   15.0740000   25.1310000  
C 21.0620000   16.0730000   24.8370000  
O 22.1130000   16.1260000   25.4280000  
O 20.6060000   20.9620000   19.4150000  
O 18.0500000   20.2340000   19.4160000  
H 18.6210000   16.2760000   23.2790000  
H 19.3990000   15.1030000   24.6500000  
H 22.4790000   18.1520000   23.3360000  
H 21.5210000   21.2770000   19.5840000  
H 18.5040000   20.9750000   18.9770000  
C 22.7660000   19.7910000   21.1840000  
C 23.6500000   18.8850000   20.5820000  
C 24.9250000   19.2720000   20.3170000  
C 25.3500000   20.5780000   20.4930000  
C 24.4920000   21.4680000   21.0570000  
C 23.1460000   21.1330000   21.4020000  
C 23.5040000   17.6180000   19.9270000  
C 24.7280000   17.2240000   19.4400000  
N 25.6110000   18.2940000   19.6400000  
O 24.0110000   15.0280000   18.6720000  
C 25.0590000   15.9310000   18.7950000  
O 26.1850000   15.6040000   18.3490000  
O 24.9790000   22.6910000   21.3510000  
O 22.4250000   22.0520000   22.0520000  
H 22.5650000   17.1170000   19.7570000  
H 23.2200000   15.4790000   18.9580000  
H 26.4780000   18.5090000   19.1960000  
H 24.3120000   23.2860000   21.5810000  
H 21.6440000   21.5470000   22.2570000  
H 26.4560000   20.8030000   20.5320000  
