76
101 
C 22.2440000   13.7030000   26.3610000  
C 21.2720000   13.3490000   27.4060000  
C 19.9780000   13.7190000   27.2950000  
C 19.4750000   14.5340000   26.2770000  
C 20.1820000   14.8500000   25.1560000  
C 21.6010000   14.4300000   25.0850000  
C 18.8010000   13.4300000   28.0730000  
C 17.6670000   14.0730000   27.4850000  
N 18.0950000   14.8010000   26.3660000  
O 16.1390000   13.1200000   29.0720000  
C 16.2310000   13.9570000   27.9660000  
O 15.3240000   14.5920000   27.4510000  
O 22.2990000   14.7250000   24.1150000  
O 23.4050000   13.4220000   26.3900000  
H 21.7150000   12.6900000   28.1180000  
H 18.6740000   12.7650000   28.9540000  
H 16.9970000   12.8050000   29.3630000  
H 17.5350000   15.4460000   25.8810000  
C 19.5670000   15.6820000   24.1090000  
C 18.9940000   16.9130000   24.3380000  
C 18.3290000   17.5550000   23.3730000  
C 18.1350000   17.1170000   22.0790000  
C 18.8310000   15.8930000   21.7920000  
C 19.4970000   15.1910000   22.8470000  
C 18.8610000   17.6530000   25.5220000  
C 18.1380000   18.7900000   25.2340000  
N 17.8560000   18.8020000   23.8200000  
O 17.9410000   19.6120000   27.4710000  
C 17.8370000   19.8910000   26.1910000  
O 17.4020000   20.9790000   25.8620000  
O 18.9020000   15.3580000   20.5340000  
O 20.0370000   13.9950000   22.6090000  
H 19.3820000   17.4810000   26.4510000  
H 18.0960000   18.7100000   27.6170000  
H 17.3770000   19.5090000   23.3410000  
H 18.5710000   15.9640000   19.8590000  
H 19.8130000   13.7520000   21.6950000  
C 17.4030000   17.9480000   21.0380000  
C 18.0570000   19.1220000   20.5040000  
C 17.4700000   19.8090000   19.5210000  
C 16.2430000   19.3820000   18.9160000  
C 15.6510000   18.2240000   19.3940000  
C 16.2120000   17.4850000   20.4410000  
C 19.2440000   19.7660000   20.8920000  
C 19.3720000   20.8280000   20.0230000  
N 18.2520000   20.8920000   19.1970000  
O 21.4880000   21.3970000   20.9410000  
C 20.5320000   21.7810000   20.0770000  
O 20.6120000   22.8240000   19.3820000  
O 14.5530000   17.7010000   18.7710000  
O 15.7310000   16.2430000   20.8520000  
H 19.9830000   19.4750000   21.6500000  
H 21.3610000   20.5500000   21.2940000  
H 17.9890000   21.5820000   18.4970000  
H 14.2560000   18.3300000   18.0570000  
H 15.0280000   15.8780000   20.2820000  
C 15.5750000   20.1920000   17.8350000  
C 16.1510000   20.5240000   16.6050000  
C 15.5380000   21.4140000   15.7500000  
C 14.3470000   22.0640000   16.1000000  
C 13.7930000   21.7950000   17.3480000  
C 14.3720000   20.8510000   18.2100000  
C 17.4170000   20.2060000   16.0190000  
C 17.5410000   21.0460000   14.9330000  
N 16.3440000   21.7930000   14.6890000  
O 19.8070000   20.5290000   14.6570000  
C 18.7800000   21.1250000   14.0930000  
O 18.8800000   21.7850000   13.0070000  
O 12.6760000   22.4730000   17.7920000  
O 13.8710000   20.7730000   19.5020000  
H 18.2190000   19.6180000   16.5000000  
H 19.4600000   20.1470000   15.4460000  
H 16.1250000   22.5040000   13.9960000  
H 12.8530000   22.4470000   18.7760000  
H 14.3080000   20.1800000   20.0900000  
H 13.9940000   22.8710000   15.4040000  
