76
101 
C 16.8360000   20.4930000   29.2670000  
C 16.3160000   19.1790000   29.6890000  
C 16.5310000   18.0620000   28.9510000  
C 16.9810000   18.1090000   27.6440000  
C 17.5410000   19.2020000   27.0190000  
C 17.5450000   20.4670000   27.8070000  
C 16.0490000   16.7320000   29.1570000  
C 16.1820000   16.0810000   27.9380000  
N 16.8810000   16.9070000   27.0820000  
O 14.8350000   14.2800000   28.5380000  
C 15.5770000   14.7770000   27.5740000  
O 15.6090000   14.2660000   26.4580000  
O 17.9930000   21.4910000   27.2800000  
O 16.8340000   21.4400000   30.0930000  
H 15.8190000   19.1240000   30.6470000  
H 15.5460000   16.4440000   30.0080000  
H 14.9850000   15.0190000   29.2290000  
H 17.2100000   16.6790000   26.1670000  
C 17.9040000   18.9900000   25.5810000  
C 16.9250000   19.1740000   24.5600000  
C 17.1840000   18.8640000   23.2480000  
C 18.3800000   18.4800000   22.7200000  
C 19.4110000   18.3780000   23.6760000  
C 19.1600000   18.6030000   25.0780000  
C 15.5280000   19.4600000   24.6620000  
C 14.9840000   19.1800000   23.3930000  
N 16.0300000   18.8330000   22.5260000  
O 12.7520000   19.7660000   23.8750000  
C 13.6090000   19.2320000   22.9500000  
O 13.2000000   18.9000000   21.8620000  
O 20.6470000   18.1030000   23.2620000  
O 20.1500000   18.2920000   26.0090000  
H 15.0110000   19.6370000   25.6230000  
H 13.3500000   19.8790000   24.5620000  
H 15.9100000   18.7700000   21.5500000  
H 20.5250000   17.9940000   22.3440000  
H 20.8600000   17.9330000   25.4080000  
C 18.6220000   18.0790000   21.2480000  
C 18.3460000   18.9690000   20.1870000  
C 18.4900000   18.5680000   18.8700000  
C 18.7510000   17.2330000   18.4920000  
C 19.0090000   16.3580000   19.5450000  
C 18.8650000   16.7450000   20.8980000  
C 18.1700000   20.3830000   20.1380000  
C 18.0280000   20.6900000   18.7470000  
N 18.2130000   19.5220000   17.9900000  
O 17.2020000   22.9360000   19.2040000  
C 17.5750000   22.0150000   18.2130000  
O 17.4510000   22.2950000   17.0420000  
O 19.4200000   15.1120000   19.2550000  
O 19.0370000   15.7800000   21.8020000  
H 18.1500000   21.0100000   21.0350000  
H 17.4920000   22.5810000   20.1080000  
H 18.2580000   19.3550000   17.0170000  
H 19.4770000   15.0910000   18.2980000  
H 19.2500000   14.9970000   21.2730000  
C 18.8340000   16.8960000   17.0450000  
C 20.0270000   16.6670000   16.3050000  
C 20.0500000   16.3260000   14.9660000  
C 18.8950000   16.3960000   14.2230000  
C 17.6720000   16.5270000   14.9560000  
C 17.6160000   16.8570000   16.2820000  
C 21.4830000   16.6300000   16.6940000  
C 22.2790000   16.4400000   15.5810000  
N 21.3880000   16.2740000   14.5520000  
O 24.4450000   16.4960000   16.6890000  
C 23.7670000   16.3440000   15.5290000  
O 24.3050000   16.1220000   14.4910000  
O 16.5620000   16.5360000   14.1720000  
O 16.5120000   16.9430000   16.8710000  
H 21.9160000   16.6620000   17.7270000  
H 23.8130000   16.5320000   17.4560000  
H 21.5710000   16.1670000   13.5670000  
H 15.7880000   16.7200000   14.7830000  
H 16.5780000   17.0780000   17.7820000  
H 18.9990000   16.3620000   13.1090000  
