76
101 
C 17.4980000   11.9230000   25.9570000  
C 18.7680000   11.8220000   26.7170000  
C 19.7890000   12.7850000   26.5090000  
C 19.6590000   13.8200000   25.6440000  
C 18.5250000   14.0330000   24.8790000  
C 17.3460000   13.1200000   24.9250000  
C 21.1570000   12.7900000   26.9650000  
C 21.8070000   13.9380000   26.4270000  
N 20.8170000   14.5980000   25.6640000  
O 23.8960000   13.6040000   27.5230000  
C 23.1670000   14.4110000   26.7340000  
O 23.6050000   15.4890000   26.3080000  
O 16.3130000   13.2740000   24.3010000  
O 16.6180000   11.1140000   26.1530000  
H 18.8960000   11.0160000   27.4790000  
H 21.5900000   11.9560000   27.5880000  
H 23.4160000   12.7580000   27.4760000  
H 21.0080000   15.3850000   25.0380000  
C 18.4930000   15.1920000   23.9950000  
C 18.6660000   15.0940000   22.6010000  
C 18.6160000   16.2270000   21.8110000  
C 18.3140000   17.5090000   22.2130000  
C 17.9690000   17.6420000   23.5730000  
C 18.1360000   16.5040000   24.4360000  
C 18.9830000   14.0190000   21.7160000  
C 19.3510000   14.6710000   20.5450000  
N 19.1050000   16.0360000   20.6010000  
O 19.7690000   12.6860000   19.3160000  
C 19.8870000   14.0950000   19.3580000  
O 20.4730000   14.7300000   18.5040000  
O 17.7490000   18.8910000   24.1300000  
O 17.9120000   16.7620000   25.7550000  
H 19.1360000   13.0310000   22.0210000  
H 19.5640000   12.2810000   20.1200000  
H 19.2440000   16.7250000   19.8760000  
H 17.7540000   19.5090000   23.3890000  
H 17.5110000   17.6630000   25.8750000  
C 18.1850000   18.6920000   21.3040000  
C 16.9950000   18.8260000   20.5570000  
C 16.8010000   19.9090000   19.7090000  
C 17.7560000   20.9300000   19.5760000  
C 18.9560000   20.8710000   20.4210000  
C 19.1580000   19.7010000   21.2500000  
C 15.9230000   17.9120000   20.2460000  
C 15.1700000   18.5620000   19.2490000  
N 15.7050000   19.7920000   18.9420000  
O 13.7580000   16.8070000   19.0990000  
C 13.9610000   18.0010000   18.5860000  
O 13.3060000   18.4740000   17.6910000  
O 19.9280000   21.8070000   20.2440000  
O 20.3630000   19.4460000   21.8230000  
H 15.8270000   16.8650000   20.7550000  
H 14.3620000   16.8320000   19.8710000  
H 15.3390000   20.6370000   18.4520000  
H 19.6570000   22.5120000   19.6690000  
H 20.9540000   20.2110000   21.5670000  
C 17.5020000   22.0860000   18.7250000  
C 16.4590000   23.0200000   19.0690000  
C 16.2030000   24.2040000   18.3360000  
C 17.1070000   24.5720000   17.3130000  
C 18.1180000   23.6740000   16.9320000  
C 18.2660000   22.4330000   17.6070000  
C 15.6670000   23.1510000   20.2610000  
C 14.9340000   24.3830000   20.1960000  
N 15.2920000   25.0200000   18.9960000  
O 13.7830000   24.1690000   22.1900000  
C 14.1230000   25.0050000   21.2560000  
O 13.6560000   26.1530000   21.2120000  
O 18.9490000   23.9370000   15.8050000  
O 19.2760000   21.6150000   17.2590000  
H 15.6980000   22.5690000   21.1700000  
H 14.1430000   23.3480000   21.8420000  
H 14.8260000   25.8510000   18.5890000  
H 19.4160000   23.1750000   15.6840000  
H 19.3520000   20.8360000   17.8740000  
H 17.1330000   25.5320000   16.8440000  
