76
101 
C 10.4410000   18.1750000   22.9950000  
C 10.3630000   18.9030000   24.2860000  
C 11.5320000   19.4270000   24.8640000  
C 12.7810000   19.2750000   24.2320000  
C 12.9640000   18.5550000   23.0990000  
C 11.8480000   17.9050000   22.3530000  
C 11.7870000   20.3430000   25.9050000  
C 13.1610000   20.5610000   26.0340000  
N 13.7220000   19.8370000   24.9820000  
O 13.3070000   22.1750000   27.7540000  
C 13.9930000   21.5350000   26.8280000  
O 15.2410000   21.5750000   26.7830000  
O 11.9490000   17.2710000   21.2940000  
O  9.3780000   17.7180000   22.5310000  
H  9.3680000   19.0100000   24.7560000  
H 10.9640000   20.8050000   26.3480000  
H 12.5300000   21.7490000   27.7720000  
H 14.7110000   19.8680000   24.8030000  
C 14.2690000   18.5450000   22.5590000  
C 15.1450000   17.5890000   23.0330000  
C 16.4370000   17.5550000   22.5510000  
C 17.0250000   18.4770000   21.6870000  
C 16.1140000   19.3670000   21.0880000  
C 14.7100000   19.4220000   21.5090000  
C 14.9950000   16.6610000   24.0700000  
C 16.2270000   16.0460000   24.2160000  
N 17.1340000   16.6370000   23.2980000  
O 15.5360000   14.5430000   25.8710000  
C 16.5900000   14.9180000   25.1570000  
O 17.6760000   14.3750000   25.2110000  
O 16.4900000   20.1470000   20.1160000  
O 13.8480000   20.3340000   21.1320000  
H 14.0570000   16.2710000   24.5670000  
H 14.8670000   15.2310000   25.5640000  
H 18.0850000   16.3080000   23.1560000  
H 17.4170000   19.8560000   19.8830000  
H 14.2660000   20.8760000   20.4910000  
C 18.4310000   18.4830000   21.3090000  
C 18.9720000   17.4330000   20.4860000  
C 20.2580000   17.3920000   20.1840000  
C 21.1500000   18.3460000   20.6570000  
C 20.6360000   19.4940000   21.3340000  
C 19.2850000   19.6010000   21.5850000  
C 18.3740000   16.2080000   19.9020000  
C 19.4350000   15.4660000   19.3300000  
N 20.6070000   16.2370000   19.5520000  
O 18.1750000   13.5170000   18.6840000  
C 19.3890000   14.1440000   18.6770000  
O 20.3570000   13.5110000   18.2860000  
O 21.4900000   20.5290000   21.6710000  
O 18.7620000   20.7010000   22.2570000  
H 17.3820000   15.7460000   20.1840000  
H 17.4890000   14.1280000   18.9550000  
H 21.5460000   15.9460000   19.2680000  
H 22.4010000   20.3120000   21.2230000  
H 19.6290000   21.1560000   22.5460000  
C 22.6440000   18.1710000   20.5560000  
C 23.3170000   18.0350000   19.3130000  
C 24.6580000   17.9030000   19.2590000  
C 25.4670000   17.9190000   20.3680000  
C 24.8860000   18.0160000   21.6290000  
C 23.5090000   18.1060000   21.7120000  
C 22.8090000   18.1250000   17.9170000  
C 23.9590000   18.0800000   17.0890000  
N 25.0270000   17.9400000   17.9400000  
O 22.7450000   17.8820000   15.0360000  
C 23.9900000   17.9760000   15.5920000  
O 25.0270000   17.9000000   14.9680000  
O 25.6910000   17.9990000   22.7280000  
O 22.9970000   18.2360000   22.9400000  
H 21.7540000   18.2220000   17.5500000  
H 22.0560000   17.9900000   15.7260000  
H 25.9310000   17.7380000   17.4850000  
H 25.1080000   17.6080000   23.4050000  
H 22.0280000   18.3470000   22.8910000  
H 26.5490000   17.8560000   20.2430000  
