76
101 
C 18.8450000   19.8110000   29.0470000  
C 17.9800000   18.8040000   29.6780000  
C 17.4070000   17.7570000   28.9340000  
C 17.6240000   17.6790000   27.5750000  
C 18.3650000   18.5330000   26.7940000  
C 19.1180000   19.6420000   27.4560000  
C 16.3300000   16.8310000   29.2780000  
C 16.0700000   16.0940000   28.0960000  
N 16.8420000   16.6780000   27.1310000  
O 14.0420000   15.0970000   28.9390000  
C 14.9230000   15.2150000   27.9240000  
O 14.6020000   14.6920000   26.8440000  
O 19.7480000   20.4710000   26.7650000  
O 19.2780000   20.7370000   29.7020000  
H 17.7560000   18.9580000   30.7450000  
H 15.7560000   16.8490000   30.1650000  
H 14.6140000   15.3620000   29.7210000  
H 16.8940000   16.3710000   26.1840000  
C 18.3690000   18.2660000   25.3310000  
C 17.2220000   18.5610000   24.5600000  
C 17.2610000   18.3090000   23.2330000  
C 18.2340000   17.5780000   22.5180000  
C 19.3460000   17.1420000   23.3370000  
C 19.4220000   17.5180000   24.7090000  
C 15.9970000   19.2500000   24.8270000  
C 15.4600000   19.5010000   23.6350000  
N 16.1940000   18.8240000   22.6370000  
O 13.5400000   20.6630000   24.4880000  
C 14.1850000   20.2290000   23.3530000  
O 13.6690000   20.4040000   22.2830000  
O 20.4400000   16.6280000   22.7310000  
O 20.5030000   17.1780000   25.5390000  
H 15.6710000   19.6150000   25.8420000  
H 14.1730000   20.6080000   25.1690000  
H 15.8900000   18.6580000   21.6740000  
H 20.2630000   16.4690000   21.7850000  
H 21.1900000   16.6780000   25.0870000  
C 18.2840000   17.5590000   21.0410000  
C 18.1930000   18.7590000   20.3130000  
C 17.9980000   18.6720000   18.9820000  
C 17.9620000   17.4980000   18.2160000  
C 17.9830000   16.2690000   18.9360000  
C 18.1140000   16.3000000   20.3300000  
C 18.2350000   20.1450000   20.6350000  
C 17.9820000   20.8730000   19.5060000  
N 17.8060000   19.9240000   18.4880000  
O 18.1750000   22.9400000   20.6470000  
C 18.1170000   22.3270000   19.4630000  
O 18.1830000   22.9290000   18.3880000  
O 17.8430000   15.1530000   18.2150000  
O 18.3090000   15.1090000   20.8650000  
H 18.4080000   20.6240000   21.5940000  
H 17.8950000   22.2480000   21.3400000  
H 17.7080000   20.1900000   17.5420000  
H 17.6470000   15.5370000   17.3570000  
H 17.8540000   14.4060000   20.3090000  
C 18.1140000   17.5550000   16.7280000  
C 19.2770000   16.9510000   16.1150000  
C 19.5650000   17.0740000   14.7920000  
C 18.6330000   17.7160000   13.9140000  
C 17.4590000   18.2250000   14.4800000  
C 17.1920000   18.1900000   15.8480000  
C 20.4790000   16.3820000   16.6960000  
C 21.3940000   16.1380000   15.6740000  
N 20.7480000   16.5100000   14.4950000  
O 23.1540000   15.4110000   17.0530000  
C 22.7300000   15.6580000   15.8180000  
O 23.4200000   15.4500000   14.7860000  
O 16.5550000   18.7550000   13.6080000  
O 15.9920000   18.5930000   16.3250000  
H 20.6800000   16.1950000   17.8000000  
H 22.3660000   15.6040000   17.5920000  
H 21.2340000   16.6870000   13.6090000  
H 15.7410000   19.0360000   14.0770000  
H 15.8560000   18.1950000   17.1880000  
H 18.8780000   17.7840000   12.8540000  
