76
101 
C 18.7410000   11.8200000   26.0300000  
C 19.2590000   12.3490000   27.2750000  
C 19.5690000   13.6730000   27.3830000  
C 19.1090000   14.6510000   26.4970000  
C 18.5840000   14.3740000   25.2780000  
C 18.4290000   12.9330000   24.9310000  
C 20.0910000   14.4110000   28.5120000  
C 20.0700000   15.7440000   28.2010000  
N 19.3820000   15.8530000   27.0090000  
O 21.3290000   16.3580000   30.0530000  
C 20.6870000   16.8180000   28.9460000  
O 20.6810000   17.9530000   28.5350000  
O 18.0470000   12.5820000   23.8390000  
O 18.4950000   10.6410000   25.9180000  
H 19.3180000   11.5770000   28.0620000  
H 20.5630000   13.9040000   29.3890000  
H 21.1480000   15.4050000   30.0660000  
H 19.0750000   16.7080000   26.5230000  
C 18.2280000   15.5740000   24.4150000  
C 19.2200000   15.9480000   23.5040000  
C 18.9820000   17.0830000   22.7360000  
C 17.8050000   17.8440000   22.7730000  
C 16.7800000   17.3790000   23.6110000  
C 16.9680000   16.2210000   24.3660000  
C 20.5110000   15.4650000   23.1100000  
C 21.0610000   16.3820000   22.2780000  
N 20.1190000   17.3840000   22.0260000  
O 23.2470000   15.3460000   22.2250000  
C 22.4430000   16.3980000   21.8580000  
O 22.9600000   17.3440000   21.2070000  
O 15.6100000   18.0100000   23.7510000  
O 15.9620000   15.6140000   25.1130000  
H 20.9350000   14.5250000   23.4130000  
H 22.7210000   14.6430000   22.5510000  
H 20.1960000   18.0570000   21.2570000  
H 15.5620000   18.8120000   23.1910000  
H 15.2630000   16.1640000   24.7590000  
C 17.6080000   18.8770000   21.7250000  
C 17.6980000   18.5850000   20.3430000  
C 17.3830000   19.5570000   19.4490000  
C 17.1130000   20.9030000   19.7610000  
C 16.9660000   21.2120000   21.1040000  
C 17.1790000   20.2090000   22.0800000  
C 18.1100000   17.4340000   19.5810000  
C 17.8760000   17.7630000   18.2750000  
N 17.5190000   19.0870000   18.2020000  
O 18.1950000   15.5230000   17.4840000  
C 17.9330000   16.7830000   17.1640000  
O 17.7250000   17.1390000   16.0010000  
O 16.5160000   22.4490000   21.5450000  
O 16.9030000   20.5300000   23.3820000  
H 18.1370000   16.3960000   19.9670000  
H 18.4040000   15.4480000   18.4610000  
H 17.2420000   19.5610000   17.3920000  
H 16.2660000   23.0150000   20.8220000  
H 16.6910000   21.4960000   23.3840000  
C 17.0330000   21.9400000   18.6980000  
C 16.0810000   21.8730000   17.6250000  
C 15.8750000   22.8720000   16.7210000  
C 16.6860000   24.0030000   16.7430000  
C 17.7070000   24.1030000   17.6330000  
C 17.8520000   23.0990000   18.5960000  
C 15.1560000   20.8110000   17.3050000  
C 14.3090000   21.2540000   16.3020000  
N 14.8150000   22.5160000   15.8290000  
O 12.7050000   19.5240000   16.4500000  
C 13.1760000   20.5580000   15.7260000  
O 12.5880000   21.0240000   14.7500000  
O 18.4810000   25.1420000   17.7100000  
O 18.8410000   23.1850000   19.4820000  
H 15.0160000   19.8190000   17.7450000  
H 13.3750000   19.3720000   17.0760000  
H 14.5350000   23.0480000   15.0280000  
H 19.0450000   25.0450000   18.5710000  
H 18.8200000   22.3880000   20.1200000  
H 16.4660000   24.7710000   16.0050000  
