76
101 
C 11.6550000   14.7010000   23.4800000  
C 11.0040000   14.2620000   22.2100000  
C 11.6130000   14.4760000   21.0480000  
C 12.8270000   15.0700000   20.9160000  
C 13.5310000   15.6100000   21.9940000  
C 13.0820000   15.3960000   23.3750000  
C 11.1010000   14.2860000   19.7480000  
C 12.0470000   14.6710000   18.8360000  
N 13.1000000   15.1910000   19.6110000  
O 10.9260000   13.8880000   16.8360000  
C 11.9800000   14.5000000   17.3200000  
O 12.8520000   14.8970000   16.5800000  
O 13.6930000   15.7370000   24.3640000  
O 11.1440000   14.4510000   24.5250000  
H 10.0850000   13.6470000   22.2520000  
H 10.1330000   13.8090000   19.4580000  
H 10.3340000   13.6660000   17.5420000  
H 13.9690000   15.4110000   19.1300000  
C 14.7720000   16.3490000   21.7150000  
C 14.8630000   17.7210000   22.0060000  
C 16.1370000   18.3490000   21.9480000  
C 17.3290000   17.7580000   21.5040000  
C 17.1980000   16.3890000   21.2290000  
C 15.9540000   15.6870000   21.3950000  
C 13.9130000   18.7210000   22.4310000  
C 14.6550000   19.8650000   22.6330000  
N 15.9830000   19.6380000   22.3090000  
O 12.7670000   21.3140000   23.3100000  
C 14.0950000   21.1620000   23.0950000  
O 14.8940000   22.1190000   23.2760000  
O 18.2880000   15.6340000   20.9230000  
O 16.0010000   14.3320000   21.2120000  
H 12.8210000   18.6440000   22.5930000  
H 12.4070000   20.4370000   23.0570000  
H 16.7320000   20.3810000   22.2500000  
H 18.9420000   16.2970000   20.6300000  
H 16.8500000   14.0270000   20.8450000  
C 18.6300000   18.4410000   21.3870000  
C 19.3050000   19.0360000   22.4320000  
C 20.3890000   19.8170000   22.2560000  
C 21.2130000   19.8710000   21.1230000  
C 20.6020000   19.2420000   20.0450000  
C 19.3630000   18.6080000   20.1450000  
C 19.0000000   19.0730000   23.8080000  
C 19.9740000   19.8500000   24.4890000  
N 20.8380000   20.3540000   23.4890000  
O 19.2050000   19.5660000   26.6510000  
C 20.1060000   20.1450000   25.8740000  
O 20.9990000   20.8500000   26.2520000  
O 21.3410000   19.1600000   18.8960000  
O 18.8030000   18.0510000   18.9960000  
H 18.1740000   18.5850000   24.3160000  
H 18.7460000   18.9300000   26.0930000  
H 21.7290000   20.8010000   23.6970000  
H 22.2570000   19.4650000   19.0430000  
H 19.2180000   18.3910000   18.1670000  
C 22.5660000   20.4740000   21.0710000  
C 23.6350000   19.6790000   21.4040000  
C 24.8730000   20.2010000   21.5270000  
C 25.0020000   21.6030000   21.3450000  
C 23.9670000   22.3600000   20.7740000  
C 22.7170000   21.7830000   20.6530000  
C 23.6720000   18.2740000   21.8500000  
C 24.9920000   18.0140000   22.2000000  
N 25.6820000   19.2680000   22.1570000  
O 24.6920000   15.6070000   22.4660000  
C 25.5450000   16.6620000   22.5550000  
O 26.7010000   16.4920000   22.8100000  
O 24.2980000   23.5990000   20.2370000  
O 21.6490000   22.5140000   20.1250000  
H 22.7990000   17.6450000   21.9890000  
H 23.9850000   15.9430000   21.9530000  
H 26.6590000   19.3860000   22.4310000  
H 23.5600000   23.9170000   19.6030000  
H 20.8180000   22.1480000   20.4530000  
H 25.9440000   22.1500000   21.6240000  
