76
110 
C 19.0430000   16.3730000   29.1390000  
C 20.4780000   16.0460000   29.0640000  
C 21.1220000   16.0230000   27.8490000  
C 20.4300000   16.2570000   26.6630000  
C 19.0850000   16.6330000   26.5390000  
C 18.2130000   16.5810000   27.7430000  
C 22.5210000   16.0370000   27.5800000  
C 22.6700000   16.2030000   26.1860000  
N 21.3840000   16.5490000   25.7210000  
O 24.9970000   16.6130000   26.0770000  
C 23.8450000   16.6170000   25.4290000  
O 23.8950000   17.0520000   24.2680000  
O 16.9860000   16.6680000   27.7330000  
O 18.4790000   16.5400000   30.2380000  
H 20.8890000   15.8950000   30.0740000  
H 23.3790000   15.9390000   28.2690000  
H 24.7740000   16.0080000   26.8750000  
H 21.0910000   16.8060000   24.7530000  
C 18.5000000   16.6300000   25.2230000  
C 17.6840000   15.5980000   24.8040000  
C 17.2120000   15.6070000   23.4980000  
C 17.4680000   16.5610000   22.4990000  
C 18.0670000   17.7140000   23.0590000  
C 18.5660000   17.7540000   24.4020000  
C 17.2070000   14.4180000   25.5080000  
C 16.4570000   13.7290000   24.5250000  
N 16.4860000   14.4550000   23.3070000  
O 15.6310000   11.9600000   26.0030000  
C 15.7720000   12.3910000   24.7220000  
O 15.3490000   11.7880000   23.7250000  
O 18.1640000   18.8600000   22.2560000  
O 19.2550000   18.8690000   24.7930000  
H 17.4100000   14.0630000   26.4990000  
H 16.1430000   12.5310000   26.5840000  
H 15.9380000   14.1690000   22.4760000  
H 17.8310000   18.6430000   21.4090000  
H 19.0590000   19.5160000   24.0810000  
C 17.0100000   16.3360000   21.1050000  
C 15.6940000   16.4270000   20.7960000  
C 15.2570000   16.3860000   19.5180000  
C 16.1530000   16.2210000   18.4160000  
C 17.4970000   16.0140000   18.7220000  
C 17.9550000   16.1450000   20.0710000  
C 14.5020000   16.6650000   21.6160000  
C 13.4070000   16.6120000   20.7770000  
N 13.8740000   16.4180000   19.4270000  
O 11.6160000   16.9180000   22.4430000  
C 11.9480000   16.8690000   21.1440000  
O 11.0800000   17.0830000   20.3110000  
O 18.3690000   15.7590000   17.7280000  
O 19.3100000   15.9940000   20.2760000  
H 14.4390000   16.9910000   22.6210000  
H 12.3690000   16.6690000   22.9630000  
H 13.3150000   16.1730000   18.6080000  
H 17.8430000   16.0340000   16.9020000  
H 19.8520000   15.9790000   19.4370000  
C 15.6390000   16.2180000   17.0410000  
C 15.9470000   17.2180000   16.1300000  
C 15.4270000   17.2350000   14.8790000  
C 14.6160000   16.1960000   14.3910000  
C 14.1630000   15.2080000   15.3160000  
C 14.7920000   15.1850000   16.5780000  
C 16.5910000   18.5570000   16.3380000  
C 16.4340000   19.3010000   15.1730000  
N 15.7700000   18.4140000   14.2590000  
O 17.4380000   21.3030000   16.0260000  
C 16.9050000   20.6980000   14.9230000  
O 16.8270000   21.2980000   13.8790000  
O 13.1780000   14.2960000   14.9590000  
O 14.4010000   14.1220000   17.3670000  
H 17.1500000   18.9680000   17.1640000  
H 17.2570000   20.7400000   16.7740000  
H 15.5260000   18.6900000   13.2560000  
H 13.1770000   13.6860000   15.7080000  
H 14.8780000   13.9750000   18.1770000  
H 14.1020000   16.2440000   13.4930000  
