76
110 
C 10.1250000   14.8090000   23.8780000  
C  9.4150000   14.7500000   22.5800000  
C 10.1140000   14.8800000   21.3940000  
C 11.4770000   15.1090000   21.3370000  
C 12.2600000   15.2790000   22.4690000  
C 11.6960000   15.2110000   23.8570000  
C  9.6050000   14.8230000   20.0970000  
C 10.6730000   15.0000000   19.2200000  
N 11.8780000   15.2460000   20.0080000  
O  9.6320000   14.9590000   17.0440000  
C 10.7490000   15.1170000   17.7300000  
O 11.8190000   15.3070000   17.1680000  
O 12.3080000   15.3900000   24.8870000  
O  9.5410000   14.6670000   24.9460000  
H  8.3890000   14.4320000   22.5850000  
H  8.6430000   14.6570000   19.7610000  
H  8.9710000   14.5660000   17.6110000  
H 12.7550000   15.5270000   19.6500000  
C 13.6780000   15.4390000   22.1580000  
C 14.2470000   16.7480000   22.3380000  
C 15.5630000   16.9180000   22.1440000  
C 16.4760000   15.9420000   21.7300000  
C 15.9510000   14.6250000   21.6810000  
C 14.5760000   14.3360000   21.8710000  
C 13.6850000   18.0830000   22.7230000  
C 14.7580000   18.9520000   22.8320000  
N 15.9300000   18.2160000   22.4640000  
O 13.4750000   20.9910000   23.0110000  
C 14.7380000   20.4830000   23.1040000  
O 15.7570000   21.1380000   23.2350000  
O 16.7760000   13.5730000   21.2640000  
O 14.1010000   13.0780000   21.7470000  
H 12.6310000   18.2980000   23.0330000  
H 12.9110000   20.1970000   23.0660000  
H 16.8630000   18.4660000   22.6790000  
H 17.6990000   13.9400000   21.0390000  
H 14.6850000   12.5410000   21.1600000  
C 17.9110000   16.2990000   21.6120000  
C 18.6480000   16.6750000   22.7310000  
C 19.9810000   17.0020000   22.6290000  
C 20.7130000   17.0130000   21.4640000  
C 19.9760000   16.7100000   20.3040000  
C 18.5670000   16.4020000   20.3660000  
C 18.2890000   16.8320000   24.0930000  
C 19.4630000   17.0800000   24.7560000  
N 20.5160000   17.3110000   23.8680000  
O 18.3320000   17.5550000   26.9530000  
C 19.5280000   17.3880000   26.2240000  
O 20.5940000   17.3990000   26.8080000  
O 20.5110000   16.8760000   19.0240000  
O 17.8840000   16.1180000   19.2400000  
H 17.3060000   16.7980000   24.5460000  
H 17.6280000   17.2270000   26.3280000  
H 21.5080000   17.4480000   24.0830000  
H 21.4330000   17.2730000   19.2240000  
H 18.5950000   15.8740000   18.6100000  
C 22.1050000   17.5960000   21.2980000  
C 23.0590000   16.7610000   20.7660000  
C 24.3080000   17.2700000   20.5340000  
C 24.7210000   18.5630000   20.8990000  
C 23.7360000   19.4190000   21.4090000  
C 22.3840000   18.9760000   21.4290000  
C 23.0040000   15.3240000   20.3380000  
C 24.3370000   15.0640000   19.9710000  
N 25.1110000   16.2510000   20.1570000  
O 23.9360000   12.8740000   19.2700000  
C 24.9080000   13.7910000   19.4530000  
O 26.0500000   13.4120000   19.3530000  
O 24.0570000   20.6830000   21.7890000  
O 21.3700000   19.8750000   21.8310000  
H 22.1420000   14.6490000   20.3900000  
H 23.1230000   13.2030000   19.5550000  
H 26.1350000   16.3460000   20.0190000  
H 23.2800000   21.0510000   22.2460000  
H 20.6690000   19.3460000   22.1740000  
H 25.7440000   18.8550000   20.8860000  
