76
110 
C 10.4830000   15.0290000   25.2680000  
C  9.7510000   16.1960000   24.7300000  
C 10.3800000   16.9810000   23.8170000  
C 11.5830000   16.6950000   23.2050000  
C 12.4020000   15.6820000   23.6450000  
C 11.9220000   14.7290000   24.6840000  
C  9.9660000   18.1990000   23.2830000  
C 10.8070000   18.7240000   22.3150000  
N 11.8520000   17.7820000   22.3570000  
O  9.7070000   20.8120000   21.8120000  
C 10.7190000   19.9530000   21.5270000  
O 11.5590000   20.1880000   20.7230000  
O 12.6850000   13.9300000   25.2200000  
O 10.1100000   14.4790000   26.2520000  
H  8.7720000   16.4610000   25.1830000  
H  9.1140000   18.6800000   23.5210000  
H  8.9850000   20.3200000   22.2660000  
H 12.7260000   17.8460000   21.9190000  
C 13.7350000   15.7730000   23.1280000  
C 14.7330000   16.6340000   23.6490000  
C 15.9650000   16.6540000   23.0920000  
C 16.4010000   15.9290000   21.9260000  
C 15.3420000   15.1740000   21.3140000  
C 14.0320000   15.1190000   21.8970000  
C 14.7860000   17.3560000   24.9020000  
C 16.1200000   17.8810000   25.0230000  
N 16.8180000   17.4420000   23.8620000  
O 15.6980000   18.8760000   27.1520000  
C 16.6760000   18.3080000   26.3580000  
O 17.9180000   18.2750000   26.6070000  
O 15.5970000   14.5780000   20.1230000  
O 13.0350000   14.4130000   21.2730000  
H 14.0080000   17.3050000   25.6180000  
H 14.9670000   19.0660000   26.5160000  
H 17.8100000   17.4910000   23.7530000  
H 16.5670000   14.4510000   20.0440000  
H 13.3670000   14.0800000   20.4080000  
C 17.7700000   16.1240000   21.3620000  
C 18.9340000   15.7200000   22.0400000  
C 20.1650000   15.9180000   21.4750000  
C 20.4160000   16.6440000   20.2770000  
C 19.2730000   17.1520000   19.6250000  
C 17.9740000   16.9120000   20.2010000  
C 19.1390000   15.0400000   23.3030000  
C 20.5000000   14.7890000   23.4270000  
N 21.1520000   15.3850000   22.2730000  
O 20.3530000   13.7340000   25.5710000  
C 21.1970000   14.0430000   24.5450000  
O 22.3420000   13.6150000   24.5350000  
O 19.4790000   17.9250000   18.5160000  
O 16.8570000   17.5410000   19.6690000  
H 18.3490000   14.7750000   24.0120000  
H 19.4790000   14.1080000   25.4610000  
H 22.1540000   15.4570000   22.2020000  
H 20.3740000   18.0700000   18.3500000  
H 17.1830000   18.0060000   18.8970000  
C 21.7080000   16.8210000   19.6540000  
C 22.1240000   16.3800000   18.3270000  
C 23.3530000   16.6320000   17.8290000  
C 24.3090000   17.3210000   18.5770000  
C 23.9800000   17.7940000   19.8480000  
C 22.6660000   17.5970000   20.4180000  
C 21.4460000   15.5520000   17.3860000  
C 22.3330000   15.3110000   16.3340000  
N 23.4960000   16.1210000   16.5400000  
O 20.7870000   13.9710000   14.9560000  
C 22.0560000   14.5450000   15.0660000  
O 22.8860000   14.3790000   14.1950000  
O 25.0130000   18.4330000   20.5180000  
O 22.4680000   18.1860000   21.6970000  
H 20.4490000   15.2250000   17.5320000  
H 20.4690000   14.0160000   15.9100000  
H 24.3020000   16.2110000   15.9180000  
H 24.5870000   18.9690000   21.1900000  
H 21.5130000   18.0290000   21.8680000  
H 25.2880000   17.4330000   18.1810000  
