76
110 
C 12.4460000   16.7590000   27.6110000  
C 13.2100000   17.6540000   28.5950000  
C 14.3830000   18.1970000   28.2100000  
C 15.0880000   17.8490000   27.0470000  
C 14.5260000   17.1270000   26.0500000  
C 13.1460000   16.6150000   26.1680000  
C 15.1990000   19.1470000   28.9130000  
C 16.3710000   19.3850000   28.0780000  
N 16.2920000   18.5400000   26.9600000  
O 17.3040000   21.1130000   29.6190000  
C 17.3940000   20.4510000   28.3810000  
O 18.2940000   20.7330000   27.6160000  
O 12.5910000   15.9980000   25.3150000  
O 11.4040000   16.2170000   27.8850000  
H 12.7590000   17.8390000   29.5660000  
H 14.8580000   19.6160000   29.8110000  
H 16.3800000   21.0980000   29.8640000  
H 16.8870000   18.4760000   26.0890000  
C 15.3150000   17.1250000   24.8130000  
C 16.6150000   16.6070000   24.7660000  
C 17.2760000   16.4400000   23.5900000  
C 16.8150000   16.8790000   22.3530000  
C 15.4180000   17.3350000   22.3470000  
C 14.7210000   17.4510000   23.5710000  
C 17.4000000   15.9260000   25.7750000  
C 18.5620000   15.5740000   25.0870000  
N 18.4710000   15.7620000   23.7250000  
O 19.7950000   14.7590000   27.0120000  
C 19.7750000   14.9570000   25.6450000  
O 20.7290000   14.6430000   24.9330000  
O 14.8220000   17.5760000   21.1660000  
O 13.4340000   17.8740000   23.6180000  
H 17.1930000   15.8930000   26.8640000  
H 18.9850000   15.1540000   27.3180000  
H 19.1820000   15.5460000   23.0480000  
H 15.0990000   17.0320000   20.4320000  
H 13.0600000   17.9990000   22.7500000  
C 17.6410000   16.5270000   21.1680000  
C 17.0960000   15.7280000   20.1570000  
C 17.8210000   15.4970000   19.0500000  
C 19.1630000   15.9720000   18.8200000  
C 19.6830000   16.8490000   19.7810000  
C 18.9300000   17.1190000   20.9710000  
C 15.8940000   14.9840000   20.0240000  
C 16.0380000   14.1970000   18.8430000  
N 17.2440000   14.5400000   18.2390000  
O 14.2290000   12.6780000   19.5000000  
C 15.2260000   12.9930000   18.5760000  
O 15.5010000   12.2830000   17.6040000  
O 20.9030000   17.3990000   19.5090000  
O 19.3050000   18.0220000   21.8880000  
H 15.0540000   14.9640000   20.6600000  
H 14.0870000   13.4300000   20.1010000  
H 17.5560000   14.1290000   17.4030000  
H 21.2710000   16.9420000   18.7310000  
H 20.0620000   18.6370000   21.5600000  
C 19.9360000   15.6530000   17.6070000  
C 19.3840000   16.0500000   16.3510000  
C 19.9220000   15.6730000   15.1760000  
C 21.2160000   15.0950000   15.0880000  
C 21.8740000   14.8740000   16.3530000  
C 21.2280000   15.0130000   17.5720000  
C 18.1550000   16.8060000   16.0100000  
C 18.0590000   16.7220000   14.6330000  
N 19.2150000   16.0740000   14.1500000  
O 15.8350000   17.4540000   14.5330000  
C 16.9350000   17.1180000   13.7960000  
O 16.9480000   17.0230000   12.5970000  
O 23.1880000   14.5180000   16.3370000  
O 21.9170000   14.6270000   18.6520000  
H 17.4160000   17.1160000   16.7380000  
H 16.1110000   17.4490000   15.4710000  
H 19.5480000   16.0750000   13.1750000  
H 23.4460000   14.5690000   17.2740000  
H 21.3470000   14.6060000   19.4630000  
H 21.6600000   15.0720000   14.1030000  
