76
110 
C 12.3020000   12.8800000   17.3200000  
C 13.0140000   11.6450000   16.9180000  
C 14.1810000   11.3230000   17.6110000  
C 14.6690000   12.0970000   18.6960000  
C 14.0760000   13.2140000   19.1690000  
C 12.8420000   13.6780000   18.5870000  
C 15.0680000   10.2360000   17.4710000  
C 15.9300000   10.1920000   18.5930000  
N 15.7550000   11.4490000   19.2240000  
O 16.9050000    8.0730000   17.9930000  
C 16.9890000    9.1930000   18.7800000  
O 17.8950000    9.2500000   19.5950000  
O 12.4240000   14.7780000   18.9150000  
O 11.4060000   13.2930000   16.6780000  
H 12.6590000   10.9700000   16.1300000  
H 14.9600000    9.3900000   16.7450000  
H 16.1760000    8.2800000   17.4030000  
H 16.3200000   11.8820000   19.9540000  
C 14.9180000   14.0020000   20.0440000  
C 16.0650000   14.6820000   19.5180000  
C 16.7850000   15.5680000   20.2560000  
C 16.5430000   15.6980000   21.6380000  
C 15.5740000   14.8370000   22.2540000  
C 14.7940000   14.0330000   21.4440000  
C 16.5200000   14.7740000   18.1710000  
C 17.6570000   15.6160000   18.1790000  
N 17.8080000   16.0910000   19.5310000  
O 17.9100000   15.6730000   15.8530000  
C 18.4270000   16.0370000   17.0090000  
O 19.3850000   16.7520000   17.1540000  
O 15.5440000   14.7260000   23.6410000  
O 13.8330000   13.2350000   22.1150000  
H 16.1110000   14.2340000   17.3870000  
H 17.0560000   15.2780000   16.1690000  
H 18.4520000   16.7850000   19.8810000  
H 14.7350000   14.1680000   23.7720000  
H 13.1140000   13.7880000   22.3560000  
C 17.3700000   16.5870000   22.4810000  
C 17.3300000   18.0100000   22.2720000  
C 18.0930000   18.8970000   23.0150000  
C 19.1450000   18.4670000   23.8330000  
C 19.3430000   17.0540000   23.9170000  
C 18.4310000   16.1470000   23.3010000  
C 16.5020000   18.9230000   21.5120000  
C 16.7850000   20.2340000   21.8660000  
N 17.8020000   20.1890000   22.8710000  
O 15.2370000   21.3830000   20.4030000  
C 16.2050000   21.4910000   21.3680000  
O 16.6520000   22.6160000   21.6870000  
O 20.3050000   16.5430000   24.7060000  
O 18.6900000   14.8660000   23.5190000  
H 15.6190000   18.6550000   20.8290000  
H 15.1150000   20.4290000   20.2600000  
H 18.2960000   20.9060000   23.3480000  
H 20.9960000   17.1450000   24.7290000  
H 19.2840000   14.8190000   24.2320000  
C 20.0490000   19.4280000   24.5170000  
C 19.8090000   19.8950000   25.7860000  
C 20.6860000   20.7640000   26.3750000  
C 21.7820000   21.3570000   25.7610000  
C 22.0190000   20.8960000   24.4220000  
C 21.1910000   19.9140000   23.8100000  
C 18.7210000   19.8560000   26.6790000  
C 19.0160000   20.6170000   27.8250000  
N 20.2780000   21.0970000   27.6880000  
O 17.0410000   20.1930000   28.9670000  
C 18.2390000   20.8170000   29.0490000  
O 18.6030000   21.5480000   29.9750000  
O 23.1280000   21.2630000   23.7280000  
O 21.5180000   19.4300000   22.5820000  
H 17.8200000   19.3010000   26.5500000  
H 17.0520000   19.8820000   28.0500000  
H 20.8360000   21.5850000   28.3560000  
H 23.0840000   20.9020000   22.8250000  
H 20.9470000   18.7250000   22.4770000  
H 22.4730000   21.9810000   26.3380000  
