76
110 
C 11.5380000   15.2340000   17.0400000  
C 11.4280000   13.7530000   16.8990000  
C 12.1460000   12.8630000   17.6850000  
C 12.9770000   13.3760000   18.6930000  
C 13.3730000   14.7040000   18.8620000  
C 12.6180000   15.8130000   18.1140000  
C 12.0960000   11.4370000   17.8510000  
C 12.7570000   11.1340000   19.0830000  
N 13.3910000   12.3400000   19.5020000  
O 12.4230000    8.7160000   19.0180000  
C 12.9430000    9.7760000   19.6940000  
O 13.6090000    9.5940000   20.7000000  
O 12.8950000   17.0260000   18.0910000  
O 10.8460000   16.0040000   16.4130000  
H 10.7790000   13.4060000   16.0230000  
H 11.4580000   10.7130000   17.2500000  
H 12.0180000    9.1340000   18.2800000  
H 13.9580000   12.3880000   20.2890000  
C 14.4800000   14.9740000   19.7930000  
C 15.7800000   15.2080000   19.3070000  
C 16.8290000   15.5160000   20.0980000  
C 16.7220000   15.8560000   21.4910000  
C 15.4230000   15.6550000   22.0620000  
C 14.3220000   15.1550000   21.2130000  
C 16.2880000   14.9830000   17.9920000  
C 17.6550000   15.2610000   18.0640000  
N 17.9670000   15.7040000   19.3740000  
O 17.8400000   14.8580000   15.7340000  
C 18.5230000   15.1670000   16.8600000  
O 19.7620000   15.3740000   16.8440000  
O 15.0940000   16.0900000   23.3540000  
O 13.1270000   14.9880000   21.7490000  
H 15.6980000   14.5660000   17.1670000  
H 17.0430000   15.3850000   15.8440000  
H 18.8050000   16.1130000   19.7920000  
H 15.8370000   16.4600000   23.8670000  
H 13.1890000   14.8650000   22.7020000  
C 17.9060000   16.5310000   22.1420000  
C 17.8990000   17.9360000   22.4120000  
C 18.9560000   18.5110000   23.0410000  
C 20.1220000   17.8590000   23.3910000  
C 20.1470000   16.4580000   23.1700000  
C 19.0300000   15.7750000   22.6170000  
C 16.9350000   18.9800000   22.2630000  
C 17.4200000   20.1220000   22.8340000  
N 18.7380000   19.7750000   23.3150000  
O 15.4590000   21.4250000   22.5760000  
C 16.7390000   21.4450000   22.9590000  
O 17.2410000   22.4380000   23.4650000  
O 21.2660000   15.7510000   23.4830000  
O 19.1090000   14.4250000   22.4010000  
H 15.9690000   18.9330000   21.8060000  
H 15.3500000   20.5210000   22.2440000  
H 19.3490000   20.4010000   23.8560000  
H 21.8480000   16.4700000   23.4380000  
H 20.0360000   14.1780000   22.4450000  
C 21.2140000   18.5800000   24.1250000  
C 21.1510000   18.7680000   25.4890000  
C 22.2490000   19.3610000   26.0750000  
C 23.4400000   19.6900000   25.4800000  
C 23.5010000   19.5880000   24.1320000  
C 22.3600000   19.0660000   23.4180000  
C 20.2530000   18.5300000   26.5740000  
C 20.7550000   19.0080000   27.7890000  
N 21.9870000   19.4940000   27.4600000  
O 18.9140000   18.4020000   29.0070000  
C 20.1110000   18.9920000   29.1310000  
O 20.6410000   19.5100000   30.0720000  
O 24.5790000   20.0250000   23.4300000  
O 22.4200000   18.9090000   22.0610000  
H 19.2830000   18.0450000   26.4150000  
H 19.0590000   18.0210000   28.1330000  
H 22.6560000   19.7770000   28.1510000  
H 24.5390000   19.7720000   22.5060000  
H 21.6300000   18.5370000   21.8100000  
H 24.2620000   19.9950000   26.1340000  
