76
110 
C 11.5970000   15.4310000   27.1610000  
C 11.2090000   16.8210000   27.3000000  
C 11.8820000   17.8150000   26.5460000  
C 12.8440000   17.5020000   25.6090000  
C 13.4090000   16.2650000   25.3820000  
C 12.9810000   15.1190000   26.2620000  
C 11.6280000   19.1660000   26.4980000  
C 12.5040000   19.7780000   25.5830000  
N 13.2660000   18.7280000   25.0460000  
O 11.9040000   22.0320000   26.1580000  
C 12.6510000   21.2190000   25.3800000  
O 13.3510000   21.7150000   24.4970000  
O 13.4540000   14.0080000   26.1660000  
O 10.9400000   14.4830000   27.4970000  
H 10.3570000   17.0840000   27.9440000  
H 11.0040000   19.6190000   27.1890000  
H 11.2610000   21.4670000   26.6760000  
H 14.0970000   18.8520000   24.4310000  
C 14.3840000   16.2840000   24.2910000  
C 15.7930000   16.3440000   24.5320000  
C 16.6800000   16.2370000   23.5040000  
C 16.3250000   15.9810000   22.1890000  
C 14.9330000   15.9390000   21.9220000  
C 13.9480000   16.0710000   22.9310000  
C 16.5770000   16.5200000   25.6970000  
C 17.9590000   16.5230000   25.2420000  
N 17.9700000   16.3880000   23.8700000  
O 18.6990000   16.8350000   27.3920000  
C 19.1070000   16.7250000   26.1330000  
O 20.2370000   16.7890000   25.7900000  
O 14.5380000   15.9210000   20.5700000  
O 12.6140000   15.9090000   22.6710000  
H 16.2820000   16.5370000   26.7320000  
H 17.7660000   16.6330000   27.4570000  
H 18.7910000   16.4410000   23.2650000  
H 13.5780000   16.1400000   20.5410000  
H 12.1550000   16.1210000   23.5290000  
C 17.3730000   16.0080000   21.0840000  
C 18.2490000   14.9630000   20.8510000  
C 19.2490000   15.1010000   19.9990000  
C 19.5810000   16.2180000   19.2030000  
C 18.6420000   17.3130000   19.3980000  
C 17.5680000   17.1690000   20.3530000  
C 18.2690000   13.6160000   21.3760000  
C 19.2790000   12.9480000   20.7500000  
N 19.9480000   13.9310000   19.8640000  
O 19.0470000   10.8570000   21.9120000  
C 19.6510000   11.5290000   20.9270000  
O 20.6950000   11.1040000   20.3910000  
O 18.8010000   18.4360000   18.6090000  
O 16.6930000   18.2040000   20.4820000  
H 17.5780000   13.1440000   22.0710000  
H 18.2670000   11.3140000   22.2040000  
H 20.6490000   13.6670000   19.2140000  
H 19.5310000   18.3460000   18.0970000  
H 16.7220000   18.6880000   19.6720000  
C 20.8600000   16.4090000   18.3780000  
C 20.8090000   16.5490000   16.9540000  
C 21.9400000   17.0700000   16.3810000  
C 23.1400000   17.4380000   16.9530000  
C 23.1900000   17.2800000   18.3490000  
C 22.0990000   16.6740000   19.0650000  
C 19.8150000   16.2350000   16.0050000  
C 20.3860000   16.6080000   14.8010000  
N 21.6450000   17.2230000   15.0330000  
O 18.4810000   16.2450000   13.4570000  
C 19.8230000   16.5360000   13.4380000  
O 20.3650000   16.9670000   12.4120000  
O 24.3850000   17.5680000   19.0370000  
O 22.0600000   16.6130000   20.4710000  
H 18.7810000   15.8520000   16.1460000  
H 18.2880000   15.9920000   14.4100000  
H 22.3640000   17.4980000   14.3030000  
H 24.1530000   17.6470000   19.9690000  
H 21.1460000   16.6850000   20.8200000  
H 23.9030000   17.9530000   16.3930000  
