76
110 
C 22.8130000   11.5990000   19.2760000  
C 22.4050000   10.4440000   20.0810000  
C 21.2820000   10.5290000   20.9320000  
C 20.3990000   11.6330000   20.9800000  
C 20.6040000   12.7650000   20.2520000  
C 21.7780000   12.9400000   19.3120000  
C 20.6640000    9.5050000   21.7400000  
C 19.4900000   10.0900000   22.2800000  
N 19.4060000   11.3930000   21.8490000  
O 18.9650000    8.3850000   23.9400000  
C 18.5330000    9.4840000   23.3280000  
O 17.5650000   10.1660000   23.6330000  
O 21.9930000   13.9150000   18.5690000  
O 23.8260000   11.6460000   18.5780000  
H 23.0920000    9.5640000   19.9250000  
H 20.9880000    8.4910000   21.8430000  
H 19.8000000    8.2260000   23.5060000  
H 18.6130000   12.0490000   22.0160000  
C 19.6880000   13.8630000   20.5120000  
C 19.7300000   14.5460000   21.7020000  
C 18.7460000   15.4200000   22.0030000  
C 17.5170000   15.5910000   21.3000000  
C 17.5030000   14.8430000   20.1230000  
C 18.5470000   14.0270000   19.7350000  
C 20.7820000   14.6260000   22.7020000  
C 20.2950000   15.4630000   23.6990000  
N 19.0580000   15.9390000   23.2440000  
O 22.1280000   15.1730000   25.1700000  
C 20.9380000   15.7160000   25.0040000  
O 20.4350000   16.3310000   25.9280000  
O 16.5910000   15.2300000   19.1520000  
O 18.5850000   13.3750000   18.5310000  
H 21.7970000   14.1570000   22.6740000  
H 22.2630000   14.6230000   24.4130000  
H 18.4360000   16.5060000   23.8120000  
H 16.8030000   14.7190000   18.2890000  
H 19.4980000   13.0920000   18.3550000  
C 16.4550000   16.5860000   21.6960000  
C 16.7140000   18.0190000   21.7800000  
C 15.7330000   18.8600000   22.3090000  
C 14.3450000   18.4650000   22.4680000  
C 14.1210000   17.0520000   22.3310000  
C 15.1200000   16.1460000   21.9420000  
C 17.9180000   18.8600000   21.5450000  
C 17.5730000   20.1310000   21.9910000  
N 16.2330000   20.1580000   22.4900000  
O 19.8610000   21.1240000   21.8680000  
C 18.5170000   21.3060000   22.1550000  
O 18.1530000   22.4090000   22.5420000  
O 12.8030000   16.6120000   22.3610000  
O 14.7650000   14.8520000   21.7890000  
H 18.8450000   18.4930000   21.1210000  
H 19.9630000   20.2810000   21.3640000  
H 15.7630000   20.9120000   22.9470000  
H 12.1630000   17.3150000   22.2460000  
H 13.7770000   14.9040000   21.9770000  
C 13.2880000   19.5060000   22.6920000  
C 13.2440000   20.5870000   21.7840000  
C 12.3980000   21.5820000   21.9280000  
C 11.4970000   21.6790000   22.9740000  
C 11.4790000   20.6180000   23.9310000  
C 12.4280000   19.5530000   23.7930000  
C 13.8760000   20.7470000   20.5270000  
C 13.4300000   22.0030000   20.0590000  
N 12.5330000   22.5060000   20.9370000  
O 14.5740000   21.9080000   18.0160000  
C 13.7280000   22.6050000   18.7620000  
O 13.1130000   23.6180000   18.3170000  
O 10.6230000   20.6650000   25.0160000  
O 12.3010000   18.5120000   24.7070000  
H 14.7040000   20.1340000   20.1350000  
H 14.8830000   21.1130000   18.4970000  
H 11.8380000   23.2380000   20.7470000  
H 10.8970000   19.8710000   25.5800000  
H 12.9730000   17.7690000   24.4330000  
H 10.9280000   22.5530000   23.1630000  
