76
110 
C 23.7780000   12.4960000   21.1040000  
C 23.4070000   11.3000000   21.8270000  
C 22.1160000   11.0310000   22.2530000  
C 21.1150000   11.9090000   21.9620000  
C 21.2570000   12.9710000   21.1500000  
C 22.6180000   13.3770000   20.6510000  
C 21.4890000   10.0390000   23.0820000  
C 20.1620000   10.3420000   23.2250000  
N 19.9670000   11.5620000   22.5740000  
O 19.3110000    8.5010000   24.5770000  
C 19.0790000    9.7190000   23.9330000  
O 18.0120000   10.2860000   23.9940000  
O 22.7310000   14.4330000   20.0300000  
O 24.9360000   12.7500000   20.8000000  
H 24.1800000   10.5790000   22.0500000  
H 21.8400000    9.1690000   23.4900000  
H 20.2270000    8.4280000   24.3670000  
H 19.1500000   12.1040000   22.5710000  
C 20.1220000   13.8960000   21.0140000  
C 19.4460000   14.3810000   22.1020000  
C 18.3910000   15.1960000   22.0100000  
C 17.8090000   15.6330000   20.8030000  
C 18.4650000   15.2190000   19.6280000  
C 19.6210000   14.4110000   19.7540000  
C 19.7400000   14.2860000   23.5470000  
C 18.8440000   15.1190000   24.1620000  
N 17.8590000   15.5740000   23.2240000  
O 20.0180000   15.0640000   26.2340000  
C 18.9130000   15.4880000   25.5960000  
O 18.0950000   16.1780000   26.2070000  
O 18.0080000   15.5880000   18.4100000  
O 20.1490000   13.9830000   18.6500000  
H 20.5160000   13.7960000   23.9870000  
H 20.7270000   14.7710000   25.6230000  
H 17.1400000   16.2460000   23.3060000  
H 18.4510000   14.8710000   17.8680000  
H 20.5620000   13.1360000   18.7700000  
C 16.6130000   16.5130000   20.7740000  
C 16.7230000   17.7610000   21.3090000  
C 15.5970000   18.5110000   21.5970000  
C 14.1820000   18.2100000   21.4070000  
C 14.0390000   16.8870000   20.8300000  
C 15.2150000   16.0710000   20.5360000  
C 17.8390000   18.6500000   21.5130000  
C 17.3480000   19.8420000   22.0410000  
N 15.9680000   19.7560000   22.0730000  
O 19.4200000   20.9720000   22.4040000  
C 18.1150000   21.0320000   22.4560000  
O 17.5780000   22.0500000   22.8290000  
O 12.8000000   16.3640000   20.5070000  
O 15.0070000   14.7860000   20.0460000  
H 18.8710000   18.4000000   21.3510000  
H 19.5760000   20.0230000   22.2470000  
H 15.3700000   20.4850000   22.4650000  
H 12.1650000   16.8830000   21.0470000  
H 14.0690000   14.5810000   19.8520000  
C 13.1440000   19.1880000   21.7140000  
C 13.0500000   20.3550000   20.9840000  
C 12.1260000   21.3140000   21.3250000  
C 11.0880000   21.0630000   22.1990000  
C 11.1020000   19.9140000   22.9420000  
C 12.1420000   18.9390000   22.7520000  
C 13.8810000   20.8800000   19.8810000  
C 13.3260000   22.1540000   19.6010000  
N 12.2950000   22.3900000   20.5400000  
O 14.4810000   22.4500000   17.5320000  
C 13.5710000   22.9540000   18.4070000  
O 13.0320000   23.9610000   18.2400000  
O 10.0640000   19.6670000   23.8810000  
O 12.2320000   17.8610000   23.5680000  
H 14.5900000   20.2750000   19.2650000  
H 15.0110000   21.7120000   17.9680000  
H 11.6210000   23.1200000   20.4520000  
H 10.2350000   18.7030000   24.1490000  
H 13.0410000   17.3720000   23.4350000  
H 10.4010000   21.8650000   22.3860000  
