76
110 
C 20.2380000   17.0060000   28.5240000  
C 20.9920000   15.7730000   28.7360000  
C 21.1600000   14.8890000   27.7060000  
C 20.6230000   15.1830000   26.4140000  
C 19.9800000   16.3660000   26.0160000  
C 19.7670000   17.4310000   27.0890000  
C 21.8170000   13.7110000   27.5840000  
C 21.7080000   13.2110000   26.2730000  
N 20.9600000   14.1670000   25.5570000  
O 23.1200000   11.4150000   26.7110000  
C 22.3430000   12.0270000   25.7910000  
O 22.2510000   11.5730000   24.6360000  
O 19.2170000   18.5080000   26.9130000  
O 19.9620000   17.7530000   29.4620000  
H 21.3590000   15.4830000   29.7330000  
H 22.2750000   13.2810000   28.4770000  
H 23.0690000   11.9410000   27.5390000  
H 20.5580000   14.0330000   24.6720000  
C 19.4430000   16.4180000   24.6610000  
C 18.4050000   15.4970000   24.3810000  
C 17.8140000   15.4530000   23.1850000  
C 18.2280000   16.2390000   22.0750000  
C 19.2650000   17.1650000   22.3510000  
C 19.9000000   17.2840000   23.6390000  
C 17.4250000   14.8200000   25.2540000  
C 16.4070000   14.2780000   24.4320000  
N 16.6620000   14.6690000   23.1360000  
O 15.0370000   13.4130000   26.1990000  
C 15.1390000   13.6810000   24.8590000  
O 14.2520000   13.3220000   24.1870000  
O 19.5640000   18.0760000   21.4250000  
O 20.9890000   18.1010000   23.9250000  
H 17.5180000   14.8140000   26.3280000  
H 15.7880000   13.8070000   26.5560000  
H 16.1180000   14.4980000   22.3490000  
H 20.5210000   18.3560000   21.5010000  
H 21.1450000   18.1590000   24.9290000  
C 17.4760000   16.2210000   20.8160000  
C 16.2430000   16.8330000   20.7350000  
C 15.5930000   16.9110000   19.5540000  
C 16.1350000   16.5310000   18.3000000  
C 17.4330000   15.9470000   18.3520000  
C 18.0210000   15.7480000   19.5970000  
C 15.2900000   17.3540000   21.6470000  
C 14.2470000   17.9410000   20.9890000  
N 14.3460000   17.4950000   19.6970000  
O 13.1380000   19.0810000   22.8240000  
C 13.1030000   18.6990000   21.5040000  
O 12.1580000   19.0520000   20.8280000  
O 18.0880000   15.5650000   17.2410000  
O 19.2990000   15.3320000   19.6880000  
H 15.4190000   17.3300000   22.7530000  
H 13.9870000   18.7410000   23.1820000  
H 13.6830000   17.5460000   18.9190000  
H 17.4480000   15.7720000   16.4290000  
H 19.3720000   14.5870000   18.9610000  
C 15.3380000   16.6910000   17.0460000  
C 15.0190000   18.0140000   16.6290000  
C 14.3480000   18.2200000   15.4630000  
C 13.8020000   17.1930000   14.6860000  
C 14.1190000   15.8560000   15.0980000  
C 15.0220000   15.6330000   16.1860000  
C 15.2560000   19.2710000   17.2390000  
C 14.6310000   20.1850000   16.3980000  
N 14.1420000   19.5770000   15.2400000  
O 15.1350000   22.1300000   17.5580000  
C 14.4850000   21.6330000   16.5120000  
O 13.8690000   22.2950000   15.6490000  
O 13.5140000   14.8010000   14.4940000  
O 15.2700000   14.3560000   16.5670000  
H 15.8710000   19.4980000   18.1290000  
H 15.4790000   21.3690000   18.0510000  
H 13.4450000   19.9830000   14.6140000  
H 13.6710000   13.9180000   14.9380000  
H 14.9310000   14.1650000   17.4430000  
H 13.0170000   17.3180000   13.9110000  
