76
110 
C 12.4770000   11.8100000   17.9150000  
C 13.3750000   10.6900000   17.6160000  
C 14.6950000   10.7910000   18.0680000  
C 15.2350000   11.9000000   18.7560000  
C 14.4740000   13.0080000   19.0480000  
C 13.0820000   13.0620000   18.6520000  
C 15.7930000    9.8860000   17.9290000  
C 16.8870000   10.3610000   18.6240000  
N 16.4520000   11.5860000   19.1650000  
O 18.2100000    8.3430000   18.6600000  
C 18.2640000    9.6670000   18.8910000  
O 19.3040000   10.1390000   19.3290000  
O 12.3790000   14.0420000   18.9040000  
O 11.3250000   11.6300000   17.8540000  
H 12.9250000    9.8040000   17.1710000  
H 15.6910000    8.9370000   17.4980000  
H 17.2950000    8.2600000   18.3450000  
H 16.9700000   12.2070000   19.7380000  
C 15.1730000   14.0320000   19.8170000  
C 16.3230000   14.7130000   19.2870000  
C 16.9220000   15.6810000   20.1060000  
C 16.5660000   15.9870000   21.4390000  
C 15.3810000   15.3300000   21.9080000  
C 14.6680000   14.4270000   21.0720000  
C 17.1210000   14.5630000   18.0740000  
C 18.2360000   15.4000000   18.3300000  
N 18.1600000   15.9690000   19.5910000  
O 19.4260000   15.0870000   16.2450000  
C 19.4670000   15.5890000   17.5030000  
O 20.4700000   16.1620000   17.9250000  
O 14.8610000   15.6280000   23.1550000  
O 13.6250000   13.6880000   21.6440000  
H 16.9250000   13.9620000   17.2380000  
H 18.7590000   14.3650000   16.2490000  
H 18.8260000   16.6450000   20.0040000  
H 13.9780000   15.3010000   23.1340000  
H 13.4870000   12.9120000   21.1340000  
C 17.4590000   16.8760000   22.3300000  
C 17.7300000   18.1300000   21.8370000  
C 18.4820000   18.9850000   22.6070000  
C 19.0160000   18.7480000   23.9260000  
C 18.6020000   17.4880000   24.4080000  
C 17.8980000   16.5450000   23.6610000  
C 17.4660000   18.7480000   20.6240000  
C 18.0870000   20.0230000   20.6490000  
N 18.6660000   20.1650000   21.8810000  
O 17.3060000   20.6350000   18.4700000  
C 18.0500000   21.0170000   19.5720000  
O 18.4730000   22.1480000   19.7740000  
O 18.8340000   17.1360000   25.7690000  
O 17.6290000   15.3450000   24.1810000  
H 16.8510000   18.3210000   19.8290000  
H 16.9070000   19.8030000   18.7110000  
H 19.2010000   20.8990000   22.2510000  
H 19.1370000   17.9240000   26.1820000  
H 17.7350000   15.3340000   25.1540000  
C 19.5470000   19.7880000   24.8760000  
C 18.6930000   20.3360000   25.8800000  
C 19.1820000   21.2320000   26.7730000  
C 20.5700000   21.6150000   26.7500000  
C 21.3610000   21.1640000   25.6620000  
C 20.8840000   20.2420000   24.7200000  
C 17.2410000   20.1210000   26.2900000  
C 17.0540000   20.9050000   27.4430000  
N 18.2970000   21.4790000   27.7670000  
O 14.7040000   20.2330000   27.6460000  
C 15.7560000   20.8690000   28.2580000  
O 15.6450000   21.3470000   29.3860000  
O 22.6790000   21.5430000   25.6620000  
O 21.6320000   19.7190000   23.6940000  
H 16.5520000   19.4490000   25.7920000  
H 15.0410000   19.8670000   26.8920000  
H 18.4000000   21.9090000   28.7130000  
H 23.0520000   21.5290000   24.7270000  
H 21.1480000   18.9890000   23.2650000  
H 20.9690000   22.2060000   27.5980000  
