76
110 
C 22.7910000   15.3470000   27.1380000  
C 23.2500000   14.0140000   26.7060000  
C 22.5630000   13.3700000   25.6950000  
C 21.5500000   14.0060000   24.9790000  
C 21.0920000   15.3190000   25.1770000  
C 21.6010000   16.0980000   26.3330000  
C 22.6330000   12.0250000   25.2440000  
C 21.7310000   11.8840000   24.1610000  
N 21.1470000   13.1130000   24.0260000  
O 22.3210000    9.6100000   23.7170000  
C 21.5710000   10.6570000   23.3270000  
O 20.9450000   10.7690000   22.2540000  
O 21.1580000   17.1980000   26.6630000  
O 23.3190000   15.9310000   28.1220000  
H 24.0050000   13.3860000   27.2170000  
H 23.2020000   11.1470000   25.7210000  
H 22.9930000    9.9270000   24.3680000  
H 20.4850000   13.3350000   23.2780000  
C 20.0810000   15.7760000   24.2880000  
C 18.7080000   15.4430000   24.4520000  
C 17.7810000   15.9140000   23.5940000  
C 18.1020000   16.6740000   22.4190000  
C 19.4360000   17.1110000   22.2790000  
C 20.4390000   16.6380000   23.1900000  
C 18.1130000   14.2820000   25.0600000  
C 16.8240000   14.1810000   24.5910000  
N 16.5920000   15.2630000   23.7800000  
O 16.1940000   12.2390000   25.7860000  
C 15.8440000   13.1210000   24.8440000  
O 14.7290000   13.0580000   24.3580000  
O 19.8790000   17.9320000   21.3150000  
O 21.7210000   17.1150000   22.9780000  
H 18.7480000   13.5400000   25.7030000  
H 17.0890000   12.3570000   26.0820000  
H 15.6690000   15.5920000   23.4150000  
H 20.8050000   18.0510000   21.5140000  
H 22.1280000   16.9750000   23.8880000  
C 17.0930000   17.0230000   21.4210000  
C 16.0000000   17.9040000   21.6730000  
C 15.0960000   18.1720000   20.6930000  
C 14.9930000   17.6150000   19.4190000  
C 16.0050000   16.6140000   19.2020000  
C 17.1060000   16.4290000   20.1050000  
C 15.5700000   18.6100000   22.8440000  
C 14.4230000   19.3370000   22.4530000  
N 14.1610000   19.0160000   21.1020000  
O 13.8570000   20.5580000   24.5070000  
C 13.5840000   20.3780000   23.1970000  
O 12.7620000   21.0340000   22.6240000  
O 15.9190000   15.8570000   18.0990000  
O 18.1590000   15.6570000   19.6820000  
H 15.9570000   18.6090000   23.9120000  
H 14.6680000   20.0720000   24.7360000  
H 13.2570000   19.2220000   20.6550000  
H 15.1060000   16.0810000   17.7430000  
H 18.0920000   15.4240000   18.8040000  
C 13.8440000   17.9330000   18.5170000  
C 14.0210000   18.6130000   17.2850000  
C 13.0010000   18.8210000   16.4110000  
C 11.6980000   18.4030000   16.7120000  
C 11.4640000   17.8750000   17.9860000  
C 12.5200000   17.4900000   18.8810000  
C 15.2720000   19.1420000   16.6510000  
C 14.8760000   19.6330000   15.4430000  
N 13.5020000   19.3450000   15.2530000  
O 16.9450000   20.6560000   14.9410000  
C 15.7010000   20.5240000   14.5500000  
O 15.2040000   21.0250000   13.5470000  
O 10.1240000   17.7710000   18.3400000  
O 12.2570000   16.8000000   19.9750000  
H 16.2680000   19.0730000   17.0560000  
H 17.0590000   20.1890000   15.7930000  
H 13.1100000   19.4200000   14.3140000  
H  9.9550000   17.6450000   19.2890000  
H 13.0640000   16.4810000   20.4430000  
H 10.8770000   18.6570000   16.0090000  
