76
110 
C 16.8520000   12.3240000   15.2150000  
C 16.3690000   11.0710000   15.7720000  
C 16.2530000   10.9370000   17.1220000  
C 16.3570000   12.0340000   17.9820000  
C 16.6040000   13.3010000   17.6940000  
C 17.0720000   13.5230000   16.2640000  
C 15.7610000    9.8500000   17.8780000  
C 15.7240000   10.1500000   19.2270000  
N 16.0590000   11.5320000   19.2420000  
O 15.4810000    7.9590000   20.2860000  
C 15.4590000    9.3670000   20.4980000  
O 15.4040000    9.8970000   21.5910000  
O 17.5290000   14.6090000   15.9130000  
O 17.0180000   12.5240000   14.0480000  
H 16.0800000   10.2270000   15.1320000  
H 15.4910000    8.8490000   17.4760000  
H 15.6520000    7.7840000   19.3780000  
H 15.9590000   12.1340000   20.0210000  
C 16.7840000   14.2430000   18.7980000  
C 18.0340000   14.2740000   19.3850000  
C 18.2860000   15.1410000   20.4550000  
C 17.3040000   15.9840000   21.0690000  
C 16.1010000   16.0390000   20.3160000  
C 15.8680000   15.2180000   19.1990000  
C 19.1100000   13.3690000   19.3180000  
C 20.0300000   13.7130000   20.3800000  
N 19.4720000   14.8830000   21.0650000  
O 21.5870000   12.0270000   19.9070000  
C 21.2830000   13.0360000   20.7340000  
O 21.9790000   13.3300000   21.7110000  
O 15.1690000   16.9830000   20.5730000  
O 14.6460000   15.2000000   18.5710000  
H 19.2950000   12.6120000   18.5140000  
H 20.9430000   12.0940000   19.1980000  
H 19.8630000   15.2940000   21.9050000  
H 15.4460000   17.4480000   21.3910000  
H 14.1640000   15.9980000   18.8070000  
C 17.5320000   16.9070000   22.2140000  
C 17.9760000   18.1990000   21.9920000  
C 18.0380000   19.0770000   23.0140000  
C 17.7580000   18.8610000   24.3140000  
C 17.1470000   17.5980000   24.5610000  
C 17.1350000   16.5890000   23.5680000  
C 18.3760000   18.8910000   20.8300000  
C 18.4940000   20.2840000   21.1950000  
N 18.3600000   20.3670000   22.5870000  
O 18.7660000   20.9960000   19.0000000  
C 18.6180000   21.4590000   20.2790000  
O 18.6080000   22.6500000   20.5930000  
O 16.6120000   17.3370000   25.8190000  
O 16.6110000   15.3590000   23.9180000  
H 18.5090000   18.4920000   19.7950000  
H 18.7300000   20.0250000   19.1180000  
H 18.3900000   21.2180000   23.1710000  
H 16.7800000   18.0450000   26.3810000  
H 16.5280000   15.1750000   24.8720000  
C 17.8440000   19.9910000   25.3090000  
C 16.7790000   20.4130000   26.2110000  
C 16.8810000   21.5100000   27.0220000  
C 18.0820000   22.1210000   27.2410000  
C 19.2020000   21.5940000   26.6160000  
C 19.1580000   20.5780000   25.5710000  
C 15.4180000   19.9680000   26.2460000  
C 14.6820000   20.9370000   26.9360000  
N 15.6000000   21.8960000   27.4550000  
O 12.5390000   20.0420000   26.4480000  
C 13.1990000   21.0460000   27.0770000  
O 12.6710000   21.9340000   27.7800000  
O 20.4460000   22.1950000   26.7200000  
O 20.3300000   20.1680000   24.8840000  
H 14.9570000   19.3250000   25.5230000  
H 13.1980000   19.6530000   25.8160000  
H 15.3060000   22.7830000   27.7730000  
H 21.0420000   21.8990000   26.0310000  
H 20.0780000   19.4860000   24.2180000  
H 18.1330000   22.7960000   28.1030000  
