76
110 
C 23.1200000   14.8760000   26.4120000  
C 23.6200000   13.6100000   25.7330000  
C 22.9450000   13.0640000   24.7370000  
C 21.7350000   13.5960000   24.1890000  
C 21.1710000   14.7740000   24.5950000  
C 21.8280000   15.5250000   25.6890000  
C 23.1830000   11.9080000   23.9480000  
C 22.1380000   11.7690000   23.0460000  
N 21.3560000   12.8560000   23.1340000  
O 22.9100000    9.7050000   22.1430000  
C 21.9510000   10.6550000   22.0970000  
O 20.9760000   10.4980000   21.4050000  
O 21.4310000   16.6400000   26.0790000  
O 23.7740000   15.3370000   27.3460000  
H 24.4780000   13.1310000   26.1420000  
H 24.0030000   11.2070000   24.2360000  
H 23.4010000    9.8620000   22.9750000  
H 20.5550000   13.0820000   22.5470000  
C 20.0130000   15.1680000   23.8230000  
C 18.7280000   14.8120000   24.1390000  
C 17.6140000   15.3180000   23.5000000  
C 17.6890000   16.1690000   22.3490000  
C 19.0570000   16.5420000   22.0570000  
C 20.1650000   16.0230000   22.6840000  
C 18.3100000   13.7000000   24.8870000  
C 16.9340000   13.6460000   24.8220000  
N 16.4760000   14.6460000   23.8760000  
O 16.6670000   11.8980000   26.3840000  
C 16.0670000   12.6640000   25.4700000  
O 14.8860000   12.5880000   25.2340000  
O 19.2590000   17.2250000   20.9180000  
O 21.4120000   16.3050000   22.1480000  
H 18.9110000   13.0100000   25.5560000  
H 17.6400000   12.1620000   26.4480000  
H 15.5540000   14.7460000   23.4920000  
H 20.1600000   17.1920000   20.6880000  
H 22.0020000   15.8610000   22.8090000  
C 16.4830000   16.6340000   21.6430000  
C 16.3080000   18.0250000   21.5650000  
C 15.2220000   18.5190000   20.8800000  
C 14.1980000   17.7820000   20.2580000  
C 14.3640000   16.4010000   20.4240000  
C 15.4710000   15.8140000   21.0860000  
C 17.1470000   19.1800000   21.9570000  
C 16.4600000   20.3030000   21.5650000  
N 15.3170000   19.8720000   20.8150000  
O 17.8850000   21.9620000   22.5320000  
C 16.7280000   21.7220000   21.8430000  
O 15.9880000   22.5960000   21.5430000  
O 13.4870000   15.6100000   19.6640000  
O 15.5440000   14.4470000   21.1040000  
H 18.0830000   19.1300000   22.4350000  
H 18.1260000   21.0950000   22.8570000  
H 14.5180000   20.4680000   20.4890000  
H 13.0820000   16.2330000   19.0080000  
H 14.7040000   14.0490000   20.7460000  
C 13.0920000   18.4140000   19.4480000  
C 13.2910000   19.2310000   18.2600000  
C 12.2360000   19.5130000   17.3870000  
C 10.9880000   19.0270000   17.5960000  
C 10.6900000   18.4280000   18.8410000  
C 11.7270000   18.1540000   19.7880000  
C 14.5030000   19.6410000   17.6280000  
C 14.1810000   20.2600000   16.4100000  
N 12.7840000   20.2230000   16.2960000  
O 16.4410000   20.8940000   16.2320000  
C 15.2330000   20.9500000   15.6400000  
O 14.9900000   21.5590000   14.6230000  
O  9.4390000   18.0400000   19.1390000  
O 11.3830000   17.5480000   20.8940000  
H 15.4340000   19.4960000   18.0620000  
H 16.3770000   20.4470000   17.0330000  
H 12.2830000   20.6190000   15.5140000  
H  9.3380000   17.5700000   19.9690000  
H 12.1600000   17.0570000   21.2490000  
H 10.1690000   19.1130000   16.9080000  
