76
110 
C 10.2230000   13.5740000   21.9570000  
C  9.9670000   13.0590000   20.5560000  
C 11.0030000   13.0490000   19.6530000  
C 12.2420000   13.7070000   19.9310000  
C 12.6330000   14.2560000   21.1250000  
C 11.6190000   14.3400000   22.1380000  
C 11.1070000   12.6220000   18.2410000  
C 12.4220000   12.9290000   17.7880000  
N 13.0430000   13.5080000   18.8490000  
O 11.9480000   12.1580000   15.5910000  
C 12.9180000   12.6740000   16.4380000  
O 14.0620000   12.8050000   16.1270000  
O 11.8570000   14.9610000   23.1070000  
O  9.5400000   13.3690000   22.9320000  
H  9.0260000   12.5830000   20.3380000  
H 10.2980000   12.2420000   17.6900000  
H 11.2950000   11.9020000   16.2650000  
H 13.9930000   13.7040000   18.8790000  
C 14.0250000   14.7870000   21.1900000  
C 14.3520000   15.9670000   20.4550000  
C 15.6170000   16.5270000   20.6190000  
C 16.6450000   16.0220000   21.5250000  
C 16.3080000   14.8670000   22.2370000  
C 15.0320000   14.2560000   22.0590000  
C 13.5690000   16.7240000   19.5220000  
C 14.4110000   17.8270000   19.2980000  
N 15.6180000   17.7870000   20.0640000  
O 12.8630000   18.9760000   17.8690000  
C 14.1200000   19.0590000   18.4850000  
O 14.8400000   20.0250000   18.4630000  
O 17.2640000   14.2210000   22.9590000  
O 14.7540000   13.1430000   22.8250000  
H 12.5320000   16.4780000   19.2030000  
H 12.4770000   18.1670000   18.2700000  
H 16.3770000   18.3730000   19.9670000  
H 18.1000000   14.6330000   22.7060000  
H 15.6440000   12.8620000   23.2180000  
C 18.0040000   16.6080000   21.6220000  
C 18.2050000   17.6400000   22.5670000  
C 19.4500000   17.9920000   22.9540000  
C 20.5920000   17.5810000   22.3270000  
C 20.4300000   16.4810000   21.4780000  
C 19.1650000   15.9940000   21.1490000  
C 17.2750000   18.4150000   23.2870000  
C 17.9870000   19.3070000   24.1000000  
N 19.3720000   18.9670000   23.8970000  
O 16.1280000   20.5990000   24.9560000  
C 17.4640000   20.4440000   24.9420000  
O 18.1550000   21.1380000   25.7120000  
O 21.5180000   15.9860000   20.8670000  
O 18.9950000   14.9170000   20.2760000  
H 16.1910000   18.3260000   23.1650000  
H 15.8980000   19.9440000   24.2520000  
H 20.1550000   19.3640000   24.4240000  
H 22.2530000   16.6190000   21.1080000  
H 19.8800000   14.5660000   20.2210000  
C 21.8950000   18.2470000   22.6640000  
C 22.8690000   17.6770000   23.4910000  
C 24.0130000   18.3440000   23.7870000  
C 24.3660000   19.5430000   23.2330000  
C 23.4710000   20.1730000   22.3720000  
C 22.2360000   19.5170000   22.0910000  
C 22.8400000   16.4320000   24.2600000  
C 23.8440000   16.6260000   25.2080000  
N 24.6030000   17.7020000   24.8130000  
O 23.3980000   14.7190000   26.5110000  
C 24.2930000   15.7250000   26.2580000  
O 25.3420000   15.8300000   26.9120000  
O 23.7860000   21.4090000   21.8940000  
O 21.3670000   20.1400000   21.2370000  
H 22.1120000   15.5600000   24.2270000  
H 22.6230000   15.0420000   26.0040000  
H 25.5250000   17.9600000   25.1170000  
H 22.9770000   21.6870000   21.3960000  
H 20.6620000   19.4930000   21.1500000  
H 25.2440000   20.1460000   23.5920000  
