76
110 
C 21.8130000   11.1230000   18.5020000  
C 20.7360000   10.1130000   18.1990000  
C 19.4730000   10.3820000   18.4890000  
C 19.0230000   11.5970000   19.0760000  
C 19.8440000   12.6410000   19.3700000  
C 21.3090000   12.5310000   19.0870000  
C 18.2990000    9.6700000   18.2160000  
C 17.2100000   10.4190000   18.5680000  
N 17.6470000   11.6470000   19.0570000  
O 15.7110000    8.6590000   18.2540000  
C 15.8430000    9.9790000   18.4420000  
O 14.8880000   10.6500000   18.6780000  
O 22.0770000   13.4410000   19.3760000  
O 23.0030000   10.9710000   18.3580000  
H 20.9880000    9.1840000   17.7110000  
H 18.2640000    8.7050000   17.7290000  
H 16.5960000    8.3570000   18.2650000  
H 17.0400000   12.4080000   19.3840000  
C 19.2740000   13.8500000   19.9080000  
C 19.5290000   14.1740000   21.2530000  
C 18.9000000   15.1840000   21.8750000  
C 18.0440000   16.0730000   21.1570000  
C 17.8080000   15.7980000   19.7920000  
C 18.4400000   14.7160000   19.1710000  
C 20.2400000   13.4530000   22.3420000  
C 19.7800000   14.0100000   23.5160000  
N 19.0180000   15.1300000   23.2240000  
O 20.7370000   12.4070000   24.9670000  
C 20.0140000   13.5690000   24.9260000  
O 19.7040000   14.1940000   25.9500000  
O 16.8870000   16.5780000   19.1760000  
O 18.2510000   14.5750000   17.7990000  
H 20.6840000   12.4400000   22.3180000  
H 20.9610000   12.1270000   24.0660000  
H 18.8710000   15.8060000   23.9390000  
H 16.6450000   17.3470000   19.7620000  
H 17.6990000   15.2960000   17.5310000  
C 17.3040000   17.1970000   21.8830000  
C 17.5720000   18.5170000   21.6310000  
C 17.0600000   19.4810000   22.3510000  
C 16.0510000   19.3890000   23.3360000  
C 15.7200000   18.0100000   23.6530000  
C 16.2700000   16.9250000   22.8930000  
C 18.6660000   19.1200000   20.8450000  
C 18.5230000   20.4870000   20.9710000  
N 17.5040000   20.7370000   21.9050000  
O 20.1680000   21.1580000   19.3810000  
C 19.2890000   21.5960000   20.3380000  
O 19.2240000   22.7890000   20.6370000  
O 14.8540000   17.6620000   24.6210000  
O 15.9540000   15.6260000   23.1380000  
H 19.4110000   18.6340000   20.1470000  
H 20.2290000   20.2100000   19.3860000  
H 16.9830000   21.5860000   22.0260000  
H 14.4630000   18.5080000   24.9800000  
H 15.1010000   15.6140000   23.5490000  
C 15.4470000   20.5310000   24.0730000  
C 14.0520000   20.7440000   24.0300000  
C 13.4160000   21.6270000   24.9340000  
C 14.1190000   22.5200000   25.6460000  
C 15.5530000   22.5060000   25.5770000  
C 16.1520000   21.4930000   24.7930000  
C 13.0380000   20.0480000   23.3360000  
C 11.8030000   20.4870000   23.8980000  
N 12.0300000   21.5030000   24.8130000  
O 10.4630000   18.7610000   22.7280000  
C 10.4980000   19.8620000   23.4810000  
O  9.4350000   20.3180000   23.7660000  
O 16.3700000   23.3370000   26.2060000  
O 17.5340000   21.5040000   24.6810000  
H 13.1520000   19.2040000   22.6720000  
H 11.3490000   18.4630000   22.4740000  
H 11.2760000   21.9710000   25.3100000  
H 17.3090000   23.1020000   26.0380000  
H 17.6850000   20.7670000   24.1230000  
H 13.6480000   23.3850000   26.1350000  
