76
110 
C  9.8490000   14.8480000   22.9080000  
C  9.5660000   14.1580000   21.6810000  
C 10.4700000   14.0700000   20.6790000  
C 11.7870000   14.5050000   20.8190000  
C 12.3360000   15.0020000   21.9590000  
C 11.3990000   15.2510000   23.1490000  
C 10.3630000   13.4930000   19.3440000  
C 11.5860000   13.6070000   18.6810000  
N 12.4370000   14.1370000   19.6610000  
O 10.9820000   12.6660000   16.5000000  
C 11.9110000   13.2960000   17.3110000  
O 12.9320000   13.5590000   16.8050000  
O 11.8670000   15.6310000   24.2330000  
O  9.0070000   15.0550000   23.7180000  
H  8.4730000   13.9600000   21.5450000  
H  9.4220000   13.0450000   19.1000000  
H 10.2570000   12.6670000   17.1040000  
H 13.3530000   14.5020000   19.5140000  
C 13.7150000   15.4190000   21.7670000  
C 14.0000000   16.7940000   21.6500000  
C 15.2650000   17.2770000   21.5850000  
C 16.3980000   16.4590000   21.6500000  
C 16.1690000   15.0730000   21.7630000  
C 14.8280000   14.5620000   21.8530000  
C 13.1530000   17.9360000   21.7850000  
C 13.9850000   19.0800000   21.7890000  
N 15.2950000   18.6240000   21.4700000  
O 12.2750000   20.5500000   22.2040000  
C 13.5780000   20.5030000   21.8650000  
O 14.2700000   21.4470000   21.5900000  
O 17.2190000   14.2180000   21.8260000  
O 14.6510000   13.2400000   22.1810000  
H 12.1030000   17.9370000   22.1350000  
H 11.9420000   19.6190000   22.3060000  
H 16.1010000   19.1840000   21.7730000  
H 17.9680000   14.7310000   22.1330000  
H 15.5430000   12.9990000   22.4180000  
C 17.7300000   17.0630000   21.5570000  
C 18.5630000   17.2900000   22.6380000  
C 19.9090000   17.4900000   22.6000000  
C 20.7300000   17.5510000   21.3920000  
C 19.8970000   17.3440000   20.2470000  
C 18.4420000   17.1020000   20.3290000  
C 18.1710000   17.3740000   24.0690000  
C 19.3470000   17.5690000   24.8140000  
N 20.4520000   17.6730000   23.8570000  
O 18.3190000   17.6480000   26.9920000  
C 19.4450000   17.8800000   26.3020000  
O 20.4980000   18.2290000   26.7570000  
O 20.4640000   17.5820000   19.0080000  
O 17.6770000   16.9770000   19.1730000  
H 17.1950000   17.3110000   24.4420000  
H 17.7170000   17.2600000   26.3100000  
H 21.4240000   17.7660000   24.0460000  
H 21.4170000   17.8530000   19.2240000  
H 18.3000000   16.9520000   18.4450000  
C 22.1760000   17.9630000   21.4580000  
C 23.1710000   16.9700000   21.6990000  
C 24.4910000   17.2020000   21.8830000  
C 24.9270000   18.5380000   21.8990000  
C 23.9520000   19.5470000   21.7570000  
C 22.5860000   19.3080000   21.5160000  
C 23.0770000   15.4980000   21.8150000  
C 24.3310000   14.9580000   21.9800000  
N 25.2440000   16.0530000   21.9380000  
O 23.6510000   12.7560000   21.7710000  
C 24.6750000   13.5470000   21.9980000  
O 25.7840000   13.1200000   22.2010000  
O 24.4010000   20.8030000   21.5690000  
O 21.6210000   20.2920000   21.5000000  
H 22.1480000   14.8820000   21.6660000  
H 22.9940000   13.2570000   21.3520000  
H 26.2450000   15.9910000   21.8320000  
H 23.6090000   21.2420000   21.2480000  
H 20.7700000   19.9030000   21.5860000  
H 25.9400000   18.7510000   21.8890000  
