76
110 
C  9.8310000   16.1380000   20.2500000  
C  9.5870000   14.8040000   19.7200000  
C 10.6380000   13.9990000   19.3240000  
C 11.9410000   14.3400000   19.7060000  
C 12.3340000   15.4480000   20.4130000  
C 11.2940000   16.3740000   20.8520000  
C 10.7220000   12.7840000   18.6530000  
C 12.0700000   12.3830000   18.6720000  
N 12.7780000   13.3820000   19.3360000  
O 11.9470000   10.5220000   17.0640000  
C 12.7500000   11.3280000   17.9120000  
O 13.9880000   11.3000000   17.8420000  
O 11.6280000   17.3380000   21.4780000  
O  8.9400000   16.9030000   20.4150000  
H  8.5970000   14.6260000   19.4330000  
H  9.8230000   12.2510000   18.3060000  
H 11.1020000   10.8460000   17.2560000  
H 13.7750000   13.4570000   19.4320000  
C 13.7320000   15.4820000   20.8520000  
C 14.6640000   16.1860000   20.0470000  
C 15.9110000   16.4610000   20.5560000  
C 16.4450000   15.9500000   21.7740000  
C 15.5140000   15.2620000   22.6470000  
C 14.1900000   15.1320000   22.1710000  
C 14.6350000   16.5890000   18.6700000  
C 15.9510000   17.0080000   18.3430000  
N 16.7420000   16.8250000   19.5370000  
O 15.5000000   17.4330000   16.0420000  
C 16.4280000   17.3720000   17.0030000  
O 17.5550000   17.6500000   16.7180000  
O 15.7870000   14.9950000   24.0050000  
O 13.2910000   14.6670000   23.0640000  
H 13.8480000   16.3020000   18.0110000  
H 14.7270000   17.2660000   16.5870000  
H 17.7810000   16.8710000   19.6370000  
H 16.6940000   15.1450000   24.2410000  
H 13.9350000   14.3740000   23.7430000  
C 17.8420000   16.2710000   22.1300000  
C 18.2170000   17.4710000   22.6270000  
C 19.5330000   17.7270000   22.9080000  
C 20.6550000   16.8720000   22.7910000  
C 20.2660000   15.5690000   22.3110000  
C 18.8800000   15.2950000   21.9800000  
C 17.4330000   18.6680000   22.9340000  
C 18.3420000   19.6280000   23.2730000  
N 19.6190000   19.0260000   23.3900000  
O 16.6530000   21.2730000   23.3110000  
C 17.9890000   21.0580000   23.5350000  
O 18.8110000   21.9450000   23.7920000  
O 21.2070000   14.5640000   22.1530000  
O 18.5880000   14.1560000   21.4160000  
H 16.3760000   18.7870000   22.8690000  
H 16.2330000   20.4610000   22.9380000  
H 20.4920000   19.4640000   23.7240000  
H 22.0860000   14.8720000   22.5210000  
H 19.3480000   13.5670000   21.5420000  
C 22.0330000   17.2680000   23.0800000  
C 22.5030000   17.3710000   24.4090000  
C 23.8110000   17.8120000   24.6130000  
C 24.6330000   18.1980000   23.5890000  
C 24.2050000   18.1920000   22.2220000  
C 22.8450000   17.7540000   22.0210000  
C 21.8190000   17.3550000   25.6460000  
C 22.8020000   17.6520000   26.6100000  
N 24.0280000   18.0280000   25.9520000  
O 21.5840000   16.8860000   28.4530000  
C 22.7070000   17.5120000   28.0540000  
O 23.6170000   17.8580000   28.7930000  
O 24.9930000   18.7410000   21.2100000  
O 22.3570000   17.7920000   20.7610000  
H 20.7720000   17.1040000   25.8140000  
H 21.1860000   16.7390000   27.5820000  
H 24.8980000   18.1400000   26.3920000  
H 24.4490000   18.7010000   20.3900000  
H 21.5370000   17.2130000   20.6830000  
H 25.6170000   18.6410000   23.7850000  
