76
110 
C 12.6660000   15.9760000   27.7660000  
C 12.6210000   17.3240000   28.3270000  
C 13.3670000   18.3210000   27.7180000  
C 13.9840000   18.0830000   26.5130000  
C 14.2380000   16.8580000   25.9260000  
C 13.5330000   15.7170000   26.4840000  
C 13.5210000   19.7060000   27.9700000  
C 14.3070000   20.3150000   27.0360000  
N 14.5670000   19.2840000   26.1120000  
O 14.1420000   22.5280000   27.8500000  
C 14.6100000   21.7270000   26.9150000  
O 15.1460000   22.2110000   25.9090000  
O 13.5540000   14.6070000   25.9560000  
O 12.0600000   15.0450000   28.2550000  
H 11.9400000   17.4380000   29.1450000  
H 13.0400000   20.2800000   28.6800000  
H 13.9380000   21.9910000   28.5970000  
H 14.8730000   19.4470000   25.1340000  
C 15.0610000   17.0070000   24.7910000  
C 16.4420000   16.6970000   24.9110000  
C 17.2010000   16.4880000   23.8020000  
C 16.7360000   16.6310000   22.4510000  
C 15.3670000   16.9000000   22.3230000  
C 14.5610000   17.1800000   23.4300000  
C 17.3100000   16.4640000   26.0540000  
C 18.5450000   16.0590000   25.5720000  
N 18.5150000   16.3340000   24.1650000  
O 19.4390000   15.2100000   27.5600000  
C 19.7190000   15.5990000   26.3470000  
O 20.8120000   15.5390000   25.8240000  
O 14.8780000   17.1050000   21.0530000  
O 13.1970000   17.1420000   23.2610000  
H 16.8930000   16.4420000   27.0730000  
H 18.5110000   15.3310000   27.6220000  
H 19.3480000   16.4850000   23.5990000  
H 15.5790000   17.1370000   20.4620000  
H 12.9870000   16.9010000   22.3690000  
C 17.6420000   16.4510000   21.3030000  
C 17.4570000   15.4260000   20.3850000  
C 18.2180000   15.3240000   19.2220000  
C 19.3540000   16.0330000   18.9500000  
C 19.6600000   17.0810000   19.8690000  
C 18.8230000   17.2200000   21.0670000  
C 16.5880000   14.2880000   20.3410000  
C 16.9840000   13.4890000   19.3100000  
N 17.9430000   14.1850000   18.5340000  
O 15.5230000   11.5940000   19.8120000  
C 16.4290000   12.2120000   18.9280000  
O 16.9710000   11.6900000   17.9280000  
O 20.6670000   17.9580000   19.5560000  
O 19.1680000   18.1390000   22.0130000  
H 15.8340000   14.0670000   21.0840000  
H 15.4720000   12.1390000   20.6120000  
H 18.3000000   13.9880000   17.6210000  
H 20.7550000   17.9870000   18.5790000  
H 20.0080000   18.5210000   21.7760000  
C 20.2190000   15.6580000   17.8090000  
C 19.9000000   16.1180000   16.4720000  
C 20.7680000   15.7300000   15.4800000  
C 21.8830000   14.8570000   15.6930000  
C 22.1720000   14.5010000   17.0470000  
C 21.3090000   14.8260000   18.0490000  
C 18.7880000   16.8650000   15.7820000  
C 19.1710000   16.9090000   14.4170000  
N 20.3600000   16.1540000   14.2510000  
O 17.2310000   18.0140000   13.6370000  
C 18.3890000   17.4900000   13.2450000  
O 18.6790000   17.4370000   12.0690000  
O 23.3410000   13.8420000   17.2860000  
O 21.5900000   14.4910000   19.3300000  
H 17.9140000   17.3090000   16.2860000  
H 17.1920000   17.9120000   14.5920000  
H 20.8740000   16.1220000   13.3940000  
H 23.3000000   13.6250000   18.2390000  
H 20.9510000   14.9420000   19.9020000  
H 22.6010000   14.6810000   14.8910000  
