76
110 
C 10.0720000   15.0270000   19.0750000  
C 10.2240000   13.5620000   18.8920000  
C 11.5030000   13.0270000   18.9810000  
C 12.6320000   13.7810000   19.2550000  
C 12.6090000   15.1210000   19.6150000  
C 11.2840000   15.8370000   19.5960000  
C 11.9990000   11.6760000   19.1500000  
C 13.3480000   11.6470000   19.2640000  
N 13.7170000   12.9850000   19.4720000  
O 13.6830000    9.2530000   19.2450000  
C 14.2400000   10.4550000   19.3450000  
O 15.4290000   10.6180000   19.4680000  
O 11.1800000   17.0390000   19.7160000  
O  8.9810000   15.4700000   18.8610000  
H  9.3880000   12.9130000   18.9880000  
H 11.3870000   10.7840000   19.0710000  
H 12.7830000    9.4340000   19.0780000  
H 14.6190000   13.3370000   19.8630000  
C 13.8890000   15.7140000   20.1320000  
C 14.9670000   16.1060000   19.3480000  
C 16.1460000   16.6350000   19.8230000  
C 16.4290000   16.6570000   21.1760000  
C 15.4200000   16.1110000   22.0080000  
C 14.1350000   15.7740000   21.5330000  
C 15.2010000   15.9800000   17.9330000  
C 16.4750000   16.5080000   17.6280000  
N 17.0300000   17.0120000   18.8370000  
O 16.3820000   16.0860000   15.2410000  
C 17.1600000   16.5070000   16.2760000  
O 18.3090000   16.8310000   16.0670000  
O 15.4980000   16.0450000   23.3730000  
O 13.1860000   15.3490000   22.4350000  
H 14.5420000   15.5130000   17.2360000  
H 15.6140000   15.5460000   15.4890000  
H 18.0210000   17.2320000   19.0150000  
H 16.2290000   16.5950000   23.6320000  
H 13.7230000   15.0430000   23.1740000  
C 17.8190000   16.9790000   21.7060000  
C 18.2210000   18.2480000   22.1940000  
C 19.3870000   18.4470000   22.7860000  
C 20.4150000   17.4960000   22.8730000  
C 20.0810000   16.2510000   22.3180000  
C 18.7920000   15.9530000   21.7430000  
C 17.3820000   19.4110000   22.4980000  
C 18.1480000   20.2870000   23.2530000  
N 19.3980000   19.6500000   23.3890000  
O 16.6840000   22.2540000   23.2170000  
C 17.8030000   21.6350000   23.7270000  
O 18.5040000   22.2540000   24.5240000  
O 20.9570000   15.2410000   22.4550000  
O 18.5360000   14.7640000   21.2280000  
H 16.3800000   19.5460000   22.1630000  
H 16.2710000   21.5720000   22.6810000  
H 20.2100000   20.1500000   23.7670000  
H 21.7090000   15.4410000   23.0380000  
H 19.3570000   14.1780000   21.3670000  
C 21.6630000   17.5570000   23.5890000  
C 21.6610000   17.6930000   25.0040000  
C 22.8700000   18.0070000   25.5590000  
C 24.1090000   18.0580000   24.9360000  
C 24.1410000   17.8170000   23.5350000  
C 22.8930000   17.6580000   22.8250000  
C 20.6390000   17.6070000   26.0210000  
C 21.3290000   17.7700000   27.2100000  
N 22.6410000   18.0910000   26.9230000  
O 19.3660000   17.9530000   28.5770000  
C 20.7080000   18.0290000   28.5090000  
O 21.3670000   18.4220000   29.4700000  
O 25.2590000   18.1530000   22.8440000  
O 22.9180000   17.6670000   21.4550000  
H 19.5350000   17.5970000   25.9090000  
H 19.0030000   17.6230000   27.7430000  
H 23.2940000   18.2610000   27.6340000  
H 25.1130000   17.9430000   21.8650000  
H 22.0450000   17.4640000   21.2410000  
H 24.9860000   18.1730000   25.5120000  
