76
110 
C 12.7290000   16.6230000   28.1190000  
C 13.5890000   17.4400000   28.9390000  
C 14.8130000   17.7810000   28.4740000  
C 15.2930000   17.5140000   27.1570000  
C 14.5070000   16.8660000   26.1840000  
C 13.1760000   16.3860000   26.5610000  
C 15.9030000   18.5780000   29.0420000  
C 16.9010000   18.7770000   28.0980000  
N 16.4700000   18.1070000   26.9510000  
O 18.7050000   19.4890000   29.5280000  
C 18.2820000   19.3940000   28.2610000  
O 19.0150000   19.7100000   27.3990000  
O 12.4230000   15.7870000   25.8620000  
O 11.6540000   16.2800000   28.4670000  
H 13.2580000   17.5740000   29.9550000  
H 15.8470000   18.8340000   30.1070000  
H 18.0050000   19.3270000   30.1350000  
H 17.0330000   17.9080000   26.1490000  
C 15.1430000   16.6490000   24.8690000  
C 16.3790000   16.0850000   24.6930000  
C 17.1050000   16.2170000   23.5820000  
C 16.6530000   16.8640000   22.3590000  
C 15.3650000   17.4510000   22.5220000  
C 14.6110000   17.3430000   23.7270000  
C 17.1290000   15.2260000   25.5820000  
C 18.3180000   14.9260000   24.9520000  
N 18.2370000   15.4160000   23.6140000  
O 19.1400000   13.6730000   26.7010000  
C 19.3810000   14.0620000   25.4500000  
O 20.3420000   13.7000000   24.7900000  
O 14.7880000   18.0780000   21.4380000  
O 13.3090000   17.8090000   23.7920000  
H 16.8260000   14.9100000   26.5590000  
H 18.2720000   14.0620000   26.8250000  
H 19.0360000   15.6070000   22.9770000  
H 13.8990000   18.3940000   21.7600000  
H 12.7580000   17.2760000   24.3900000  
C 17.4260000   16.6970000   21.1280000  
C 17.4490000   15.4420000   20.5270000  
C 18.2420000   15.2620000   19.3570000  
C 18.8050000   16.2920000   18.6260000  
C 18.7490000   17.5480000   19.2490000  
C 18.1160000   17.7390000   20.4880000  
C 16.8290000   14.1740000   20.8090000  
C 17.1160000   13.3960000   19.6710000  
N 18.0210000   14.0140000   18.8500000  
O 15.6960000   11.6630000   20.2540000  
C 16.5950000   12.1010000   19.3130000  
O 16.7520000   11.5330000   18.2330000  
O 19.3660000   18.6420000   18.6510000  
O 17.9780000   19.0590000   20.9760000  
H 16.2500000   13.9860000   21.6250000  
H 15.6960000   12.3930000   20.8980000  
H 18.2670000   13.6120000   17.9650000  
H 19.8460000   18.2700000   17.9850000  
H 18.4660000   19.6570000   20.3870000  
C 19.4400000   16.0920000   17.2420000  
C 18.9760000   16.7840000   16.0930000  
C 19.6130000   16.6410000   14.8730000  
C 20.7400000   15.9000000   14.6210000  
C 21.1840000   15.1720000   15.6850000  
C 20.5570000   15.2080000   16.9870000  
C 17.7910000   17.6850000   15.8400000  
C 17.9290000   18.1550000   14.5390000  
N 18.9530000   17.4220000   13.9210000  
O 16.0100000   19.5000000   14.6150000  
C 17.0560000   19.1190000   13.8940000  
O 17.2570000   19.5380000   12.7620000  
O 22.3150000   14.4510000   15.5840000  
O 21.1440000   14.5950000   18.0260000  
H 17.1340000   18.0530000   16.6410000  
H 16.0590000   18.9550000   15.4510000  
H 19.2390000   17.5830000   12.9360000  
H 22.5350000   14.0550000   16.4870000  
H 20.4390000   14.4180000   18.7150000  
H 21.1690000   15.8820000   13.6730000  
