76
110 
C 22.9970000   12.0410000   24.3780000  
C 22.8460000   10.8460000   23.5100000  
C 21.9630000   10.8840000   22.4620000  
C 21.0400000   11.8780000   22.2370000  
C 21.0260000   13.0380000   23.0270000  
C 22.0540000   13.2930000   24.0290000  
C 21.5650000    9.7660000   21.5900000  
C 20.4720000   10.1000000   20.8430000  
N 20.1820000   11.4190000   21.2540000  
O 20.0130000    8.0250000   19.7920000  
C 19.5730000    9.2690000   19.9800000  
O 18.6020000    9.6690000   19.3790000  
O 22.0940000   14.4170000   24.5360000  
O 23.8350000   12.1630000   25.3070000  
H 23.4930000    9.9800000   23.6710000  
H 21.8850000    8.7410000   21.6750000  
H 20.8380000    7.8760000   20.2460000  
H 19.4050000   12.0170000   20.9650000  
C 20.1700000   14.1510000   22.5300000  
C 18.7930000   13.9560000   22.7220000  
C 17.9620000   14.9470000   22.3510000  
C 18.3140000   16.1170000   21.6910000  
C 19.7020000   16.3060000   21.3820000  
C 20.6160000   15.3370000   21.8950000  
C 18.0760000   12.9690000   23.4480000  
C 16.7870000   13.4640000   23.6910000  
N 16.7040000   14.6560000   22.9300000  
O 16.2590000   11.7300000   25.1090000  
C 15.8180000   12.8930000   24.5690000  
O 14.7260000   13.4060000   24.7060000  
O 20.2080000   17.4220000   20.7360000  
O 21.9480000   15.5750000   21.6350000  
H 18.4590000   12.0960000   23.8600000  
H 17.1210000   11.6060000   24.6600000  
H 15.8950000   15.2990000   23.0410000  
H 21.2270000   17.3490000   20.7920000  
H 22.4800000   14.8470000   22.1000000  
C 17.2300000   17.1200000   21.3590000  
C 17.0610000   18.2940000   22.1580000  
C 16.0090000   19.1490000   21.9650000  
C 14.9470000   18.9260000   21.1160000  
C 15.0190000   17.7520000   20.3910000  
C 16.1150000   16.8280000   20.5190000  
C 17.8940000   18.9600000   23.1470000  
C 17.2620000   20.1870000   23.4140000  
N 16.1120000   20.3430000   22.5870000  
O 18.8810000   21.0640000   24.8950000  
C 17.6460000   21.2720000   24.3710000  
O 17.0170000   22.2790000   24.5880000  
O 13.9880000   17.4230000   19.5390000  
O 16.1030000   15.6370000   19.8180000  
H 18.8760000   18.6990000   23.5660000  
H 19.2170000   20.1710000   24.6390000  
H 15.4260000   21.0810000   22.5520000  
H 13.2070000   18.0510000   19.4430000  
H 15.2750000   15.5590000   19.2530000  
C 13.7660000   19.7900000   20.9450000  
C 13.3190000   20.4200000   19.7120000  
C 12.2430000   21.2730000   19.6800000  
C 11.4460000   21.4370000   20.8140000  
C 11.8500000   20.9260000   22.0180000  
C 12.9940000   20.0880000   22.1220000  
C 14.0440000   20.5910000   18.4840000  
C 13.3920000   21.6020000   17.8210000  
N 12.2060000   21.9290000   18.5230000  
O 14.9570000   21.9080000   16.1120000  
C 13.8250000   22.3130000   16.6050000  
O 13.2050000   23.2540000   16.1870000  
O 11.1910000   21.2640000   23.1650000  
O 13.1530000   19.4480000   23.2740000  
H 14.9630000   20.1520000   18.2200000  
H 15.2860000   21.1560000   16.6240000  
H 11.4710000   22.5230000   18.1580000  
H 11.6770000   20.9570000   23.9280000  
H 14.0900000   19.1490000   23.2940000  
H 10.5860000   22.0620000   20.8340000  
