76
110 
C  9.6860000   15.8970000   22.0470000  
C  9.3370000   14.9400000   20.9700000  
C 10.3290000   14.3220000   20.1840000  
C 11.6680000   14.6090000   20.3920000  
C 12.2000000   15.4680000   21.2960000  
C 11.2470000   16.0940000   22.2440000  
C 10.2670000   13.5070000   18.9760000  
C 11.5120000   13.2250000   18.5670000  
N 12.3080000   13.8520000   19.5020000  
O 11.2020000   12.3090000   16.3540000  
C 12.0490000   12.4740000   17.4080000  
O 13.2310000   12.0970000   17.4630000  
O 11.6900000   16.8980000   23.0690000  
O  8.8790000   16.5050000   22.6690000  
H  8.3170000   14.5870000   20.8100000  
H  9.3400000   13.1390000   18.5740000  
H 10.3780000   12.6000000   16.6810000  
H 13.2730000   13.7240000   19.4170000  
C 13.6540000   15.5750000   21.4210000  
C 14.3530000   16.3590000   20.4650000  
C 15.7070000   16.5340000   20.5690000  
C 16.4740000   16.0000000   21.6410000  
C 15.7020000   15.2900000   22.6400000  
C 14.3050000   15.0510000   22.5300000  
C 13.9710000   17.1900000   19.3140000  
C 15.1230000   17.8980000   18.9280000  
N 16.2190000   17.4200000   19.6530000  
O 13.8570000   19.5010000   17.7470000  
C 15.1030000   19.0840000   18.0780000  
O 16.0990000   19.6780000   17.6090000  
O 16.3460000   14.6200000   23.6480000  
O 13.5810000   14.3350000   23.4310000  
H 12.9390000   17.5310000   19.0320000  
H 13.0870000   19.1290000   18.2040000  
H 17.1740000   17.8170000   19.6960000  
H 17.2070000   15.0340000   23.7890000  
H 14.1020000   14.4200000   24.2820000  
C 17.9080000   16.1910000   21.7180000  
C 18.4450000   17.2580000   22.4600000  
C 19.7920000   17.4310000   22.5010000  
C 20.7610000   16.5640000   22.0510000  
C 20.1830000   15.5090000   21.2320000  
C 18.8500000   15.3090000   21.1320000  
C 17.9070000   18.4630000   23.0350000  
C 18.9890000   19.3120000   23.4680000  
N 20.1940000   18.6420000   23.0440000  
O 17.6120000   20.8470000   24.6680000  
C 18.8840000   20.5890000   24.2350000  
O 19.7970000   21.3330000   24.4870000  
O 21.0220000   14.5340000   20.7210000  
O 18.4500000   14.3220000   20.3200000  
H 16.8590000   18.6340000   23.2190000  
H 17.1220000   20.0750000   24.3200000  
H 21.1810000   18.9140000   23.1050000  
H 21.9710000   14.7220000   21.0080000  
H 19.1660000   14.1930000   19.7260000  
C 22.2630000   16.7740000   22.1970000  
C 22.8500000   16.9100000   23.5080000  
C 24.1800000   17.0320000   23.7250000  
C 25.1030000   17.0300000   22.6900000  
C 24.5700000   16.9520000   21.4080000  
C 23.2050000   16.8630000   21.1370000  
C 22.3100000   17.2070000   24.8200000  
C 23.3020000   17.2000000   25.7520000  
N 24.4900000   17.1010000   25.0510000  
O 21.9490000   17.1090000   27.6750000  
C 23.2280000   17.1930000   27.1770000  
O 24.2710000   17.2460000   27.8270000  
O 25.4460000   17.0220000   20.3230000  
O 22.7920000   16.7880000   19.8540000  
H 21.2330000   17.2100000   25.0540000  
H 21.3350000   16.9430000   26.9320000  
H 25.3970000   17.0540000   25.4640000  
H 24.9250000   17.3280000   19.6090000  
H 21.8070000   17.0690000   19.7330000  
H 26.2190000   17.1150000   22.7590000  
