76
110 
C 20.7980000   11.8450000   17.0050000  
C 19.9580000   10.6700000   16.7680000  
C 18.7910000   10.4210000   17.5350000  
C 18.3290000   11.3740000   18.4050000  
C 19.0140000   12.5500000   18.7190000  
C 20.4110000   12.7460000   18.2750000  
C 17.7790000    9.4780000   17.3940000  
C 16.6760000    9.9370000   18.1580000  
N 17.0520000   11.0670000   18.8100000  
O 15.2740000    8.1840000   17.4450000  
C 15.3410000    9.2290000   18.3070000  
O 14.5260000    9.4590000   19.1370000  
O 21.1850000   13.5450000   18.7670000  
O 21.8430000   12.1210000   16.3970000  
H 20.3050000   10.0050000   15.9680000  
H 17.8060000    8.6840000   16.6170000  
H 16.1440000    8.1860000   16.9330000  
H 16.5330000   11.7370000   19.3980000  
C 18.3590000   13.4800000   19.6740000  
C 18.9230000   13.7760000   20.9570000  
C 18.4950000   14.8260000   21.7220000  
C 17.4890000   15.7610000   21.3980000  
C 16.8970000   15.4810000   20.1500000  
C 17.3050000   14.3950000   19.3170000  
C 19.9330000   13.0570000   21.6540000  
C 20.1470000   13.7590000   22.8040000  
N 19.2010000   14.7770000   22.8950000  
O 22.0320000   12.5080000   23.4930000  
C 21.1710000   13.5070000   23.8090000  
O 21.2770000   14.2530000   24.7750000  
O 16.0180000   16.4120000   19.6230000  
O 16.6350000   14.1410000   18.1320000  
H 20.4760000   12.2200000   21.2150000  
H 21.4720000   12.1590000   22.8010000  
H 19.0200000   15.2900000   23.7480000  
H 16.0030000   17.2990000   20.0950000  
H 15.8400000   14.6740000   17.9580000  
C 17.1790000   17.0000000   22.2390000  
C 17.4510000   18.3320000   21.8560000  
C 17.1970000   19.4180000   22.6660000  
C 16.5420000   19.3600000   23.9270000  
C 16.3210000   18.0000000   24.3380000  
C 16.6530000   16.8870000   23.5360000  
C 18.0780000   18.8530000   20.6310000  
C 18.0250000   20.2560000   20.7630000  
N 17.4770000   20.5880000   22.0450000  
O 18.9660000   20.7590000   18.5660000  
C 18.4730000   21.2550000   19.7370000  
O 18.3400000   22.4520000   19.9080000  
O 15.5420000   17.7720000   25.5020000  
O 16.4210000   15.6230000   24.0340000  
H 18.4890000   18.2670000   19.8050000  
H 18.6740000   19.8380000   18.6440000  
H 17.1180000   21.4840000   22.2150000  
H 15.2370000   18.6970000   25.7420000  
H 16.0930000   15.8380000   24.9410000  
C 16.2230000   20.4800000   24.7650000  
C 14.9110000   20.9790000   24.9080000  
C 14.6350000   21.9880000   25.8350000  
C 15.5750000   22.6460000   26.5820000  
C 16.8790000   22.4000000   26.2740000  
C 17.2100000   21.3250000   25.4030000  
C 13.6540000   20.6450000   24.3220000  
C 12.6670000   21.4320000   24.9200000  
N 13.2820000   22.2440000   25.8860000  
O 10.6410000   20.5350000   23.7420000  
C 11.1930000   21.2720000   24.7420000  
O 10.4660000   21.9400000   25.4240000  
O 17.9360000   22.9880000   26.9490000  
O 18.4520000   20.9500000   25.2920000  
H 13.4590000   19.7630000   23.6820000  
H 11.4600000   20.2520000   23.3070000  
H 12.8130000   22.9960000   26.3970000  
H 18.7540000   22.4780000   26.7550000  
H 18.4240000   20.3620000   24.4950000  
H 15.2930000   23.5280000   27.1610000  
