76
110 
C 21.8800000   14.3510000   27.5690000  
C 23.1030000   14.0240000   26.7750000  
C 23.1440000   14.2890000   25.3830000  
C 21.9770000   14.7410000   24.7370000  
C 20.7800000   15.0270000   25.3210000  
C 20.6810000   14.9880000   26.7830000  
C 24.1710000   14.0040000   24.3940000  
C 23.6420000   14.3370000   23.1540000  
N 22.2930000   14.8170000   23.3930000  
O 25.6660000   13.8660000   21.8500000  
C 24.3410000   14.3050000   21.8050000  
O 23.7760000   14.3920000   20.7270000  
O 19.7110000   15.4230000   27.3880000  
O 21.7260000   14.0650000   28.7230000  
H 23.8330000   13.4710000   27.3510000  
H 25.0960000   13.6560000   24.6770000  
H 25.8720000   13.7020000   22.8460000  
H 21.6510000   15.2020000   22.7020000  
C 19.7120000   15.4370000   24.4100000  
C 18.6760000   14.5420000   24.0980000  
C 17.7350000   14.8170000   23.1690000  
C 17.5410000   16.0620000   22.5220000  
C 18.6520000   16.9680000   22.8930000  
C 19.7770000   16.6180000   23.6810000  
C 18.3680000   13.2420000   24.6710000  
C 17.0250000   12.9670000   24.1610000  
N 16.7470000   13.8820000   23.1280000  
O 16.4620000   11.4020000   25.7890000  
C 16.0280000   12.0460000   24.6780000  
O 14.9470000   11.8030000   24.1720000  
O 18.6710000   18.2640000   22.4410000  
O 20.7100000   17.4960000   23.9960000  
H 18.8770000   12.8150000   25.5510000  
H 17.3280000   11.7570000   25.9530000  
H 15.8820000   13.8440000   22.5760000  
H 17.9240000   18.4150000   21.8040000  
H 20.6520000   18.2490000   23.3550000  
C 16.3720000   16.4120000   21.6700000  
C 15.5800000   17.5800000   21.9770000  
C 14.7150000   18.0310000   20.9930000  
C 14.3210000   17.2860000   19.8180000  
C 14.9970000   16.0540000   19.6370000  
C 16.0930000   15.6370000   20.5160000  
C 15.6390000   18.6630000   22.9470000  
C 15.0170000   19.7400000   22.3240000  
N 14.3250000   19.3270000   21.2080000  
O 15.9040000   21.3000000   23.8670000  
C 15.0760000   21.1330000   22.7800000  
O 14.4010000   22.0050000   22.2960000  
O 14.7770000   15.5010000   18.4490000  
O 16.7660000   14.4490000   20.2250000  
H 16.3670000   18.7940000   23.8170000  
H 16.3820000   20.4140000   23.9150000  
H 13.8660000   19.9130000   20.5750000  
H 14.0550000   16.0150000   18.0070000  
H 16.3020000   14.0280000   19.4220000  
C 13.2380000   17.8220000   18.8930000  
C 13.5420000   18.1930000   17.5770000  
C 12.6410000   18.8300000   16.6980000  
C 11.3370000   19.1050000   17.1340000  
C 10.9540000   18.8350000   18.4570000  
C 11.8780000   18.1100000   19.2970000  
C 14.8280000   18.1280000   16.7670000  
C 14.5630000   18.6510000   15.5110000  
N 13.1670000   18.9970000   15.4330000  
O 16.7590000   18.6280000   14.9070000  
C 15.5330000   18.8310000   14.4080000  
O 15.3000000   19.1530000   13.2490000  
O  9.6530000   19.0290000   18.8290000  
O 11.4500000   17.7080000   20.5220000  
H 15.7770000   17.7640000   17.1200000  
H 16.6340000   18.4660000   15.8590000  
H 12.7870000   19.3770000   14.6000000  
H  9.5210000   18.7160000   19.7520000  
H 12.2530000   17.5320000   21.0730000  
H 10.5760000   19.5180000   16.3860000  
