76
110 
C 22.6810000   11.8900000   18.9050000  
C 21.9090000   10.6370000   18.7390000  
C 20.5580000   10.6030000   19.1120000  
C 19.8930000   11.6870000   19.6370000  
C 20.4260000   12.9830000   19.7600000  
C 21.8030000   13.1880000   19.3040000  
C 19.5200000    9.6050000   18.8810000  
C 18.3030000   10.1140000   19.4120000  
N 18.6070000   11.4120000   19.8600000  
O 16.9410000    8.2310000   18.8930000  
C 16.9950000    9.4230000   19.4850000  
O 16.0280000    9.7350000   20.1250000  
O 22.3970000   14.2230000   19.4250000  
O 23.8760000   11.9580000   18.8460000  
H 22.3220000    9.7020000   18.3850000  
H 19.6330000    8.6500000   18.4720000  
H 17.6480000    8.2080000   18.2780000  
H 17.8640000   11.9760000   20.2890000  
C 19.6330000   14.0090000   20.3370000  
C 19.5750000   14.1300000   21.7370000  
C 18.7740000   15.0760000   22.2860000  
C 17.8960000   15.9150000   21.5920000  
C 17.8320000   15.6570000   20.2120000  
C 18.7330000   14.7470000   19.5240000  
C 20.1920000   13.5100000   22.8990000  
C 19.6950000   14.1290000   24.0410000  
N 18.7890000   15.1490000   23.6500000  
O 20.7610000   12.7040000   25.5430000  
C 20.0020000   13.7580000   25.4830000  
O 19.5530000   14.3950000   26.4230000  
O 16.9390000   16.3510000   19.4300000  
O 18.5650000   14.4490000   18.2360000  
H 21.0730000   12.8260000   22.7850000  
H 20.7650000   12.3960000   24.6260000  
H 18.3250000   15.7490000   24.2840000  
H 16.2990000   16.7580000   20.0340000  
H 17.8760000   15.0830000   17.9070000  
C 17.0680000   16.9520000   22.2380000  
C 17.4500000   18.3310000   22.0830000  
C 16.6050000   19.2590000   22.6270000  
C 15.4190000   18.9720000   23.2680000  
C 15.0710000   17.6120000   23.4660000  
C 15.8310000   16.5980000   22.8780000  
C 18.5090000   19.0810000   21.4070000  
C 18.2740000   20.4360000   21.5670000  
N 17.0770000   20.5090000   22.3440000  
O 20.1350000   21.2270000   20.2800000  
C 18.9840000   21.5740000   20.8960000  
O 18.6430000   22.7530000   21.0210000  
O 13.8570000   17.3420000   24.0670000  
O 15.5450000   15.2690000   23.2190000  
H 19.3640000   18.5970000   20.8420000  
H 20.1420000   20.3140000   20.0180000  
H 16.4910000   21.3470000   22.6070000  
H 13.3800000   18.1670000   24.2700000  
H 14.7860000   15.3500000   23.8560000  
C 14.6530000   20.1660000   23.7390000  
C 13.6120000   20.6760000   22.9820000  
C 12.7260000   21.6280000   23.5080000  
C 12.8170000   22.1810000   24.7620000  
C 13.9100000   21.8120000   25.5270000  
C 14.8140000   20.8000000   25.0030000  
C 13.1030000   20.2180000   21.7070000  
C 12.0700000   21.1010000   21.4060000  
N 11.8310000   21.9470000   22.5140000  
O 11.4230000   19.9060000   19.5580000  
C 11.1520000   20.9300000   20.2590000  
O 10.3030000   21.7140000   19.9240000  
O 14.1950000   22.4930000   26.6670000  
O 15.8580000   20.3170000   25.7720000  
H 13.4720000   19.4510000   20.9980000  
H 12.0660000   19.3710000   20.0310000  
H 11.0510000   22.6040000   22.6240000  
H 15.0310000   22.1500000   26.9980000  
H 16.4090000   19.6590000   25.3130000  
H 12.2520000   23.0110000   25.0490000  
