76
110 
C 11.7400000   14.1580000   25.9630000  
C 10.9190000   15.3630000   26.2500000  
C 11.0450000   16.5320000   25.4870000  
C 11.9700000   16.6320000   24.4480000  
C 12.7780000   15.6470000   24.0160000  
C 12.6920000   14.3050000   24.7130000  
C 10.3720000   17.7730000   25.4780000  
C 10.8900000   18.5640000   24.4080000  
N 11.9530000   17.8160000   23.9400000  
O  9.5060000   20.5250000   24.5840000  
C 10.5970000   19.9630000   23.9800000  
O 11.2640000   20.5480000   23.1220000  
O 13.4560000   13.4010000   24.4220000  
O 11.7660000   13.1220000   26.5840000  
H 10.2480000   15.2330000   27.0850000  
H  9.6710000   18.1100000   26.2210000  
H  9.2150000   19.8150000   25.2200000  
H 12.5700000   18.1320000   23.2080000  
C 13.8700000   16.0190000   23.1720000  
C 14.9760000   16.7780000   23.6220000  
C 16.0610000   16.8960000   22.8530000  
C 16.1510000   16.5500000   21.4810000  
C 14.9940000   15.9410000   20.9920000  
C 13.9050000   15.5760000   21.8340000  
C 15.3320000   17.3050000   24.9280000  
C 16.5720000   17.8440000   24.7860000  
N 17.0070000   17.6210000   23.5100000  
O 16.7390000   18.7730000   26.9740000  
C 17.3440000   18.5650000   25.8170000  
O 18.5120000   18.9300000   25.5290000  
O 14.9490000   15.4360000   19.6780000  
O 12.7960000   14.9180000   21.2830000  
H 14.7000000   17.2830000   25.8490000  
H 15.8950000   18.2600000   26.9240000  
H 17.9490000   17.9990000   23.1060000  
H 14.1690000   14.8530000   19.6960000  
H 12.2390000   14.6240000   22.0510000  
C 17.4620000   16.6670000   20.7000000  
C 18.6120000   16.0660000   21.3180000  
C 19.8790000   16.2780000   20.8280000  
C 20.1380000   16.9000000   19.6110000  
C 19.0260000   17.4840000   18.9460000  
C 17.7070000   17.3950000   19.5010000  
C 18.8470000   15.2650000   22.5460000  
C 20.2320000   15.0480000   22.7020000  
N 20.8460000   15.6730000   21.5850000  
O 19.9550000   13.9330000   24.8350000  
C 20.8490000   14.4100000   23.9480000  
O 22.0580000   14.3130000   24.1800000  
O 19.3490000   18.2590000   17.9100000  
O 16.7460000   18.0420000   18.7840000  
H 18.1880000   14.8980000   23.3140000  
H 19.0740000   14.1500000   24.4680000  
H 21.8190000   15.7770000   21.4420000  
H 20.3560000   18.2090000   17.8310000  
H 17.0970000   18.6570000   18.1000000  
C 21.4970000   16.9730000   19.0640000  
C 21.7050000   16.2560000   17.9180000  
C 22.9690000   16.1420000   17.3790000  
C 24.0960000   16.8380000   17.9010000  
C 23.8620000   17.5730000   19.0920000  
C 22.5990000   17.6320000   19.6930000  
C 20.8610000   15.3600000   17.1620000  
C 21.6920000   14.8060000   16.1720000  
N 22.9800000   15.3530000   16.3160000  
O 20.1250000   13.3830000   15.2770000  
C 21.4270000   13.7920000   15.2000000  
O 22.2090000   13.4070000   14.3810000  
O 24.9060000   18.2160000   19.6630000  
O 22.4090000   18.4670000   20.7910000  
H 19.8320000   15.0000000   17.3700000  
H 19.5920000   14.1080000   15.7200000  
H 23.7520000   15.1530000   15.6830000  
H 24.6780000   18.9070000   20.2960000  
H 21.5210000   18.4400000   20.9780000  
H 25.0680000   16.8950000   17.4440000  
