76
110 
C 13.0170000   12.8630000   16.5760000  
C 12.9190000   11.5080000   17.1390000  
C 13.5580000   11.1650000   18.3130000  
C 14.1650000   12.1470000   19.0840000  
C 14.2850000   13.4680000   18.8160000  
C 13.8430000   13.9110000   17.4280000  
C 13.6050000    9.9190000   18.9940000  
C 14.2830000   10.1520000   20.2120000  
N 14.5980000   11.5180000   20.2390000  
O 14.4310000    7.9270000   20.8220000  
C 14.7580000    9.1190000   21.1740000  
O 15.4040000    9.4330000   22.1290000  
O 13.8980000   15.0540000   17.0870000  
O 12.4820000   13.2260000   15.5630000  
H 12.3510000   10.7960000   16.5280000  
H 13.2290000    8.9800000   18.6800000  
H 13.9490000    7.8980000   20.0000000  
H 14.9100000   12.0060000   21.0600000  
C 15.0550000   14.3150000   19.7580000  
C 16.3960000   13.9160000   20.0330000  
C 17.1500000   14.6670000   20.9390000  
C 16.7190000   15.9500000   21.4360000  
C 15.3510000   16.2190000   21.2560000  
C 14.4560000   15.4230000   20.4670000  
C 17.3320000   12.9820000   19.3560000  
C 18.5850000   13.3120000   19.8280000  
N 18.4650000   14.3250000   20.8080000  
O 19.8490000   11.7230000   18.6870000  
C 19.9220000   12.8210000   19.3660000  
O 21.0010000   13.2830000   19.6590000  
O 14.7720000   17.3090000   21.7460000  
O 13.1450000   15.8410000   20.3310000  
H 17.1440000   12.2360000   18.5830000  
H 18.8510000   11.5860000   18.5290000  
H 19.1600000   14.5760000   21.4580000  
H 13.8410000   17.0040000   21.8900000  
H 12.6570000   15.3600000   19.6390000  
C 17.6840000   16.9750000   22.0970000  
C 17.7570000   18.3130000   21.6390000  
C 18.5210000   19.1690000   22.3930000  
C 19.2050000   18.9260000   23.5150000  
C 19.2320000   17.5820000   23.9820000  
C 18.5320000   16.5950000   23.2400000  
C 17.2390000   18.9550000   20.4580000  
C 17.8240000   20.2520000   20.5210000  
N 18.5120000   20.3810000   21.7370000  
O 16.4740000   20.9670000   18.7800000  
C 17.5100000   21.3560000   19.6000000  
O 18.0840000   22.4380000   19.5970000  
O 19.8480000   17.3330000   25.2010000  
O 18.4930000   15.3240000   23.8340000  
H 16.7960000   18.4490000   19.6370000  
H 16.3450000   20.0290000   18.9890000  
H 18.8700000   21.2600000   22.2170000  
H 20.3030000   18.1430000   25.5010000  
H 19.1700000   15.3680000   24.5390000  
C 19.9500000   20.0050000   24.1490000  
C 19.5050000   20.5460000   25.3860000  
C 20.1900000   21.5380000   26.0420000  
C 21.3060000   22.2460000   25.4990000  
C 21.8450000   21.6870000   24.2880000  
C 21.1820000   20.5680000   23.5950000  
C 18.3680000   20.2380000   26.1540000  
C 18.4750000   20.9350000   27.3610000  
N 19.5540000   21.8380000   27.2430000  
O 16.6690000   19.7240000   28.2390000  
C 17.5900000   20.6860000   28.4900000  
O 17.7130000   21.3050000   29.5080000  
O 22.9740000   22.2550000   23.7510000  
O 21.7040000   20.1190000   22.4750000  
H 17.5840000   19.4920000   25.8600000  
H 16.6590000   19.4730000   27.3190000  
H 19.9250000   22.3530000   28.0010000  
H 23.1900000   21.8360000   22.9460000  
H 21.2260000   19.3250000   22.3180000  
H 21.8350000   22.9630000   26.1150000  
