76
110 
C 24.0670000   13.3980000   22.8030000  
C 23.7660000   11.9050000   22.6380000  
C 22.5120000   11.5120000   22.4210000  
C 21.4430000   12.3880000   22.2500000  
C 21.5450000   13.7700000   22.2900000  
C 22.8030000   14.4350000   22.6940000  
C 21.9370000   10.1540000   22.3860000  
C 20.5600000   10.2960000   22.2550000  
N 20.2950000   11.6630000   22.1620000  
O 19.9240000    8.0100000   22.0720000  
C 19.4910000    9.3130000   22.0090000  
O 18.3630000    9.5700000   21.6380000  
O 22.8830000   15.5990000   23.0330000  
O 25.1680000   13.8160000   23.0890000  
H 24.5830000   11.2170000   22.7180000  
H 22.5550000    9.2500000   22.2910000  
H 20.8610000    8.0730000   22.1690000  
H 19.3600000   11.9680000   21.9100000  
C 20.3430000   14.4700000   22.1310000  
C 19.6190000   15.0300000   23.1780000  
C 18.4110000   15.6380000   23.0070000  
C 17.7430000   15.7690000   21.7730000  
C 18.5490000   15.3020000   20.6820000  
C 19.8350000   14.7750000   20.8390000  
C 19.7410000   14.9300000   24.6090000  
C 18.7270000   15.6750000   25.1920000  
N 17.8720000   16.1050000   24.1970000  
O 19.5190000   15.6730000   27.4470000  
C 18.5710000   16.0670000   26.6420000  
O 17.6380000   16.7410000   27.0890000  
O 18.1130000   15.5590000   19.4740000  
O 20.4910000   14.4490000   19.6720000  
H 20.3440000   14.2770000   25.0620000  
H 20.0340000   15.1390000   26.7740000  
H 17.0510000   16.6500000   24.3230000  
H 18.8240000   15.1200000   18.9110000  
H 21.4260000   14.4450000   19.8930000  
C 16.5010000   16.4420000   21.5420000  
C 16.2390000   17.6920000   22.0510000  
C 15.1660000   18.4000000   21.7250000  
C 14.0760000   17.9400000   20.9990000  
C 14.1970000   16.6010000   20.5000000  
C 15.3670000   15.7820000   20.8580000  
C 17.1380000   18.6000000   22.7680000  
C 16.4940000   19.8300000   22.7790000  
N 15.2500000   19.7000000   22.1530000  
O 18.3160000   20.9740000   23.7840000  
C 17.1350000   21.1010000   23.1850000  
O 16.6470000   22.1580000   22.9230000  
O 13.1990000   16.0780000   19.7290000  
O 15.3620000   14.4870000   20.4170000  
H 18.1760000   18.3520000   23.0320000  
H 18.5110000   20.0420000   23.8890000  
H 14.6680000   20.4210000   21.9090000  
H 12.5230000   16.7220000   19.4550000  
H 14.4040000   14.3290000   20.4470000  
C 12.8800000   18.8390000   20.7670000  
C 13.0240000   19.7680000   19.7390000  
C 12.0350000   20.6260000   19.4300000  
C 10.8370000   20.6620000   20.1240000  
C 10.6330000   19.7830000   21.2060000  
C 11.6320000   18.7900000   21.5050000  
C 14.0870000   19.9990000   18.7630000  
C 13.6950000   20.9880000   17.9800000  
N 12.4090000   21.3840000   18.3310000  
O 15.6710000   21.0340000   16.6160000  
C 14.5040000   21.6020000   16.9180000  
O 14.1390000   22.6460000   16.3960000  
O  9.3630000   19.6650000   21.7740000  
O 11.4480000   17.9610000   22.5340000  
H 15.1080000   19.6120000   18.8900000  
H 15.6770000   20.1400000   17.0820000  
H 11.7770000   21.9630000   17.7280000  
H  9.4460000   18.9720000   22.4620000  
H 12.1480000   17.3810000   22.5320000  
H 10.0680000   21.4020000   19.8520000  
