76
110 
C 11.2550000   15.5440000   26.2770000  
C 10.2750000   16.5670000   25.8220000  
C 10.5030000   17.3000000   24.7210000  
C 11.6830000   17.1270000   23.9830000  
C 12.7820000   16.2690000   24.2740000  
C 12.5830000   15.3740000   25.4180000  
C  9.8190000   18.4470000   24.2620000  
C 10.6500000   18.9330000   23.1460000  
N 11.7510000   18.0450000   23.0180000  
O  9.1460000   20.8110000   22.5010000  
C 10.3330000   20.0780000   22.2610000  
O 11.0830000   20.4150000   21.3970000  
O 13.4830000   14.7060000   25.8310000  
O 11.0260000   14.9370000   27.2530000  
H  9.4490000   16.6720000   26.5040000  
H  8.9030000   18.8840000   24.6770000  
H  8.8030000   20.4760000   23.3340000  
H 12.5400000   18.0620000   22.3720000  
C 13.9910000   16.3510000   23.5280000  
C 15.1410000   17.0290000   23.9940000  
C 16.2680000   17.2550000   23.2740000  
C 16.4500000   16.6810000   21.9990000  
C 15.3020000   16.0620000   21.4500000  
C 14.0810000   15.9540000   22.1620000  
C 15.5750000   17.1770000   25.3730000  
C 16.9110000   17.5000000   25.4570000  
N 17.3780000   17.5320000   24.1460000  
O 17.2720000   17.4330000   27.8550000  
C 17.8170000   17.7010000   26.6300000  
O 18.9660000   18.0560000   26.3720000  
O 15.3870000   15.2980000   20.2940000  
O 13.0080000   15.3640000   21.5950000  
H 14.9120000   17.1100000   26.2070000  
H 16.3700000   16.9840000   27.7450000  
H 18.3070000   17.6860000   23.8110000  
H 16.3030000   15.1720000   19.8830000  
H 13.3090000   15.2700000   20.6840000  
C 17.8540000   16.6700000   21.3980000  
C 18.7610000   15.5460000   21.4750000  
C 20.0080000   15.5760000   20.9210000  
C 20.5580000   16.6890000   20.1820000  
C 19.6680000   17.8180000   20.0860000  
C 18.3640000   17.7870000   20.6650000  
C 18.6960000   14.3040000   22.1700000  
C 19.8670000   13.5460000   21.8550000  
N 20.6600000   14.3470000   21.0690000  
O 19.2640000   11.4840000   23.0070000  
C 20.2420000   12.1820000   22.3560000  
O 21.3150000   11.6730000   22.1490000  
O 20.1090000   18.9020000   19.4470000  
O 17.5430000   18.8550000   20.4420000  
H 17.9310000   13.9620000   22.8340000  
H 18.5520000   12.1270000   22.9210000  
H 21.6200000   14.1450000   20.7280000  
H 21.0110000   18.7220000   19.2590000  
H 18.0720000   19.5790000   19.9650000  
C 21.8380000   16.5040000   19.4600000  
C 21.7780000   16.3380000   18.0730000  
C 22.9040000   16.3460000   17.3610000  
C 24.1210000   16.6810000   17.9770000  
C 24.2400000   16.8330000   19.3530000  
C 23.0880000   16.7020000   20.1250000  
C 20.7090000   16.0590000   17.1670000  
C 21.2140000   15.7370000   15.9530000  
N 22.6100000   16.0670000   16.0520000  
O 19.2610000   15.1770000   14.8890000  
C 20.5780000   15.4020000   14.6730000  
O 21.1630000   15.3790000   13.5920000  
O 25.5430000   16.8750000   19.9440000  
O 23.1380000   16.7630000   21.4920000  
H 19.6420000   16.0600000   17.4050000  
H 19.0830000   15.2620000   15.8760000  
H 23.2900000   16.0310000   15.3150000  
H 25.5160000   17.0820000   20.8850000  
H 22.1970000   16.6310000   21.7480000  
H 25.0060000   16.7070000   17.3400000  
