76
110 
C 10.2130000   14.3470000   18.7800000  
C 10.5720000   12.9310000   18.4760000  
C 11.7670000   12.4450000   18.9650000  
C 12.6990000   13.1570000   19.7180000  
C 12.6210000   14.4940000   20.0070000  
C 11.3600000   15.1820000   19.6300000  
C 12.3770000   11.1160000   18.8010000  
C 13.5680000   11.0500000   19.5830000  
N 13.7650000   12.3680000   20.0450000  
O 13.9880000    8.7960000   19.2750000  
C 14.4860000    9.9560000   19.7580000  
O 15.5970000   10.0770000   20.3060000  
O 11.2370000   16.2900000   20.0260000  
O  9.1810000   14.8860000   18.5340000  
H  9.8420000   12.3770000   17.9780000  
H 11.9010000   10.3350000   18.2070000  
H 13.1470000    9.1360000   18.9540000  
H 14.5160000   12.7060000   20.6210000  
C 13.7650000   15.1200000   20.6520000  
C 14.8850000   15.3780000   19.9140000  
C 16.0290000   15.9160000   20.3860000  
C 16.1870000   16.2670000   21.7410000  
C 15.0090000   16.2500000   22.5320000  
C 13.8130000   15.6200000   21.9860000  
C 15.2960000   14.9930000   18.5470000  
C 16.6260000   15.2740000   18.3990000  
N 17.0540000   15.9620000   19.5830000  
O 16.9510000   13.9830000   16.4130000  
C 17.5170000   14.8870000   17.2780000  
O 18.6810000   15.3000000   17.1390000  
O 15.0390000   16.6230000   23.8500000  
O 12.8120000   15.5290000   22.8780000  
H 14.6550000   14.8810000   17.7290000  
H 16.1890000   13.7050000   16.9110000  
H 17.9660000   16.2450000   19.8580000  
H 14.1870000   16.4050000   24.2530000  
H 12.2530000   14.7760000   22.6430000  
C 17.4700000   16.8630000   22.3090000  
C 17.5140000   18.2300000   22.6330000  
C 18.6720000   18.8630000   23.0150000  
C 19.9360000   18.2030000   23.1390000  
C 19.9060000   16.8140000   22.7800000  
C 18.6770000   16.1460000   22.3590000  
C 16.6080000   19.2730000   22.3340000  
C 17.2180000   20.4800000   22.6790000  
N 18.5170000   20.2430000   23.1640000  
O 15.1870000   21.6970000   22.4440000  
C 16.4980000   21.7750000   22.7820000  
O 16.9640000   22.8410000   23.2260000  
O 21.0200000   16.1070000   22.8850000  
O 18.6700000   14.8040000   22.0300000  
H 15.5510000   19.2050000   22.1800000  
H 14.9840000   20.7570000   22.1720000  
H 19.1170000   20.9230000   23.6230000  
H 21.8380000   16.5800000   23.1230000  
H 19.5880000   14.4890000   22.0900000  
C 21.2880000   18.8730000   23.3260000  
C 22.0910000   18.7020000   24.4100000  
C 23.2970000   19.3690000   24.5550000  
C 23.8020000   20.2440000   23.5940000  
C 23.1280000   20.1810000   22.4210000  
C 21.8830000   19.5530000   22.2340000  
C 21.9330000   17.9310000   25.6310000  
C 23.0980000   18.1780000   26.4250000  
N 23.8630000   19.1290000   25.7750000  
O 22.2830000   17.0080000   28.2960000  
C 23.2370000   17.8240000   27.8740000  
O 24.1480000   18.2290000   28.5250000  
O 23.6130000   20.8550000   21.3310000  
O 21.2450000   19.5940000   20.9990000  
H 21.1360000   17.3640000   25.9990000  
H 21.6230000   17.1160000   27.6090000  
H 24.7080000   19.6080000   26.1070000  
H 22.9450000   20.6720000   20.6580000  
H 20.4440000   18.9940000   20.9980000  
H 24.7570000   20.7250000   23.7260000  
