76
110 
C 19.7110000   16.7150000   28.9060000  
C 21.0610000   16.1780000   28.8430000  
C 21.5970000   15.7660000   27.6760000  
C 20.9610000   15.8930000   26.4480000  
C 19.7520000   16.3750000   26.2420000  
C 19.0940000   16.9900000   27.4690000  
C 22.8480000   15.0800000   27.3800000  
C 22.8480000   14.7660000   26.0140000  
N 21.7460000   15.3440000   25.4500000  
O 25.0120000   13.6930000   26.0010000  
C 23.9250000   14.0940000   25.2360000  
O 23.8160000   13.8320000   24.0550000  
O 18.0420000   17.5810000   27.3500000  
O 19.1260000   16.8230000   29.9560000  
H 21.5630000   16.1520000   29.8390000  
H 23.6490000   14.9530000   28.0920000  
H 24.5380000   13.6240000   26.9070000  
H 21.4750000   15.2320000   24.4370000  
C 19.1250000   16.4270000   24.9100000  
C 18.6040000   15.2830000   24.2960000  
C 17.9950000   15.3630000   23.0780000  
C 17.8980000   16.5120000   22.2790000  
C 18.5050000   17.6690000   22.8630000  
C 19.0930000   17.6400000   24.1540000  
C 18.4030000   13.8810000   24.7600000  
C 17.4790000   13.2980000   23.8550000  
N 17.4130000   14.1230000   22.7120000  
O 17.1370000   11.2090000   24.9660000  
C 16.8170000   12.0100000   23.9130000  
O 16.0960000   11.6410000   23.0190000  
O 18.6880000   18.8020000   22.1280000  
O 19.7150000   18.7240000   24.6600000  
H 18.8610000   13.4440000   25.6300000  
H 17.6540000   11.6820000   25.6610000  
H 16.9600000   13.9310000   21.8180000  
H 18.2230000   18.7800000   21.3080000  
H 19.6940000   19.3740000   23.9290000  
C 17.0710000   16.4800000   21.0300000  
C 15.6730000   16.8690000   21.0680000  
C 14.9050000   16.9120000   19.9800000  
C 15.3480000   16.5850000   18.6910000  
C 16.7600000   16.2110000   18.5920000  
C 17.5860000   16.2100000   19.7550000  
C 14.9130000   17.4440000   22.1550000  
C 13.6290000   17.8050000   21.6630000  
N 13.6580000   17.5090000   20.3020000  
O 12.8300000   18.9040000   23.5930000  
C 12.5640000   18.5520000   22.3240000  
O 11.4860000   18.7720000   21.8710000  
O 17.1730000   15.8170000   17.3530000  
O 18.9040000   15.9420000   19.6830000  
H 15.2080000   17.4100000   23.1630000  
H 13.7410000   18.6560000   23.8180000  
H 12.8640000   17.5890000   19.6950000  
H 16.3890000   16.1570000   16.8560000  
H 19.2100000   15.7710000   18.8090000  
C 14.4740000   16.7840000   17.5130000  
C 14.7320000   17.6280000   16.3820000  
C 13.9640000   17.5850000   15.2390000  
C 12.8300000   16.8840000   15.1230000  
C 12.4380000   16.1660000   16.2910000  
C 13.2350000   16.1340000   17.4730000  
C 15.8570000   18.5530000   16.1810000  
C 15.6610000   19.1020000   14.9240000  
N 14.5740000   18.4960000   14.2650000  
O 17.2730000   20.8630000   15.3220000  
C 16.3600000   20.3380000   14.4810000  
O 16.1530000   20.8500000   13.4140000  
O 11.2690000   15.4180000   16.2360000  
O 12.8730000   15.4120000   18.5430000  
H 16.5250000   18.9190000   16.9160000  
H 17.4290000   20.2550000   16.0350000  
H 14.0720000   18.7340000   13.4330000  
H 11.2900000   14.9390000   17.0910000  
H 13.5650000   15.4470000   19.2070000  
H 12.1800000   17.0450000   14.3010000  
