76
110 
C 21.8920000   11.9960000   18.2180000  
C 21.8070000   10.6670000   18.9250000  
C 20.8890000   10.4300000   19.9190000  
C 19.9490000   11.3840000   20.2050000  
C 19.9620000   12.7120000   19.7430000  
C 20.9490000   13.0950000   18.7010000  
C 20.5140000    9.2160000   20.6060000  
C 19.4730000    9.5270000   21.5260000  
N 19.1900000   10.8510000   21.2050000  
O 19.2410000    7.4560000   22.4570000  
C 18.6510000    8.6290000   22.3940000  
O 17.6400000    8.9340000   23.0030000  
O 21.0150000   14.2410000   18.2820000  
O 22.6810000   12.1480000   17.3460000  
H 22.5440000    9.9540000   18.6210000  
H 21.0040000    8.2760000   20.3890000  
H 19.8320000    7.4520000   21.6950000  
H 18.5110000   11.4270000   21.5960000  
C 19.0130000   13.5960000   20.3300000  
C 19.3450000   14.2860000   21.4880000  
C 18.3790000   15.1210000   22.0100000  
C 17.1460000   15.5310000   21.3920000  
C 16.8100000   14.7480000   20.2240000  
C 17.7110000   13.7370000   19.7420000  
C 20.3050000   14.0890000   22.5460000  
C 19.8810000   14.9610000   23.5820000  
N 18.6960000   15.6210000   23.2570000  
O 21.7560000   14.6530000   25.1460000  
C 20.6440000   15.3520000   24.7880000  
O 20.2850000   16.2920000   25.4560000  
O 15.6330000   15.0180000   19.5640000  
O 17.4540000   13.0510000   18.5740000  
H 21.1510000   13.3890000   22.4380000  
H 21.9170000   14.0930000   24.4010000  
H 18.2700000   16.3960000   23.7550000  
H 15.5200000   14.4290000   18.7890000  
H 18.2750000   12.9090000   18.0790000  
C 16.3560000   16.6580000   21.9390000  
C 16.7580000   17.9800000   21.6680000  
C 16.1020000   19.0350000   22.2180000  
C 14.9920000   18.9260000   23.0710000  
C 14.5910000   17.5650000   23.3330000  
C 15.2890000   16.4830000   22.8010000  
C 17.9150000   18.5770000   21.0420000  
C 17.9380000   19.9380000   21.1680000  
N 16.7570000   20.2760000   21.9070000  
O 20.1350000   20.3200000   20.3480000  
C 18.9890000   20.8790000   20.8430000  
O 18.9000000   22.0640000   21.0140000  
O 13.4920000   17.3120000   24.1400000  
O 15.0190000   15.2390000   23.3140000  
H 18.7370000   18.0360000   20.5690000  
H 19.9410000   19.3700000   20.4560000  
H 16.5320000   21.2370000   22.2720000  
H 13.1110000   18.1460000   24.1500000  
H 14.2060000   15.2120000   23.9040000  
C 14.3130000   20.1400000   23.5180000  
C 13.7290000   20.9890000   22.5630000  
C 13.1830000   22.1810000   22.9680000  
C 13.1370000   22.5950000   24.2670000  
C 13.6940000   21.6910000   25.2570000  
C 14.3300000   20.4930000   24.9330000  
C 13.5260000   20.9080000   21.1510000  
C 12.8200000   22.0620000   20.6880000  
N 12.6880000   22.8690000   21.8640000  
O 12.6070000   21.3970000   18.5010000  
C 12.3280000   22.4050000   19.3340000  
O 11.6070000   23.3140000   19.0370000  
O 13.7460000   22.1270000   26.5360000  
O 14.9710000   19.7200000   25.8960000  
H 13.7840000   20.0820000   20.4540000  
H 13.1830000   20.8520000   18.9790000  
H 12.3540000   23.7920000   21.9540000  
H 14.2280000   21.4870000   26.9200000  
H 15.5500000   19.0780000   25.4840000  
H 12.6800000   23.5250000   24.5810000  
