76
110 
C 22.7270000   14.5680000   26.7880000  
C 23.3480000   13.4940000   25.9160000  
C 23.1010000   13.3020000   24.5910000  
C 22.2010000   14.1370000   23.9920000  
C 21.3780000   15.0600000   24.6540000  
C 21.5950000   15.3940000   26.1050000  
C 23.5570000   12.3610000   23.6040000  
C 22.8600000   12.5720000   22.4290000  
N 22.0260000   13.6520000   22.7000000  
O 24.0060000   10.8300000   21.2760000  
C 23.0690000   11.8480000   21.2190000  
O 22.5280000   12.0390000   20.1470000  
O 20.9600000   16.2810000   26.6310000  
O 22.9770000   14.8110000   27.9640000  
H 24.1240000   12.9250000   26.3630000  
H 24.2900000   11.6070000   23.7210000  
H 24.3300000   10.8190000   22.2130000  
H 21.5470000   14.2430000   22.0630000  
C 20.2560000   15.3870000   23.8570000  
C 19.0200000   14.7140000   23.7990000  
C 18.0230000   15.1600000   22.9880000  
C 18.1250000   16.2810000   22.1290000  
C 19.3210000   16.9960000   22.1680000  
C 20.3490000   16.6160000   23.1330000  
C 18.4950000   13.5140000   24.4780000  
C 17.1390000   13.5040000   24.2210000  
N 16.9110000   14.4790000   23.2240000  
O 16.3660000   11.7700000   25.7090000  
C 16.0470000   12.6280000   24.7380000  
O 14.8860000   12.7540000   24.3550000  
O 19.4740000   18.1720000   21.4640000  
O 21.4800000   17.4080000   23.1800000  
H 18.9950000   12.8310000   25.2010000  
H 17.2890000   11.7740000   25.8900000  
H 16.0040000   14.6100000   22.7810000  
H 18.6740000   18.1280000   20.8910000  
H 21.3230000   18.0490000   22.4970000  
C 16.8780000   16.7380000   21.4030000  
C 16.3180000   17.9470000   21.8640000  
C 15.2200000   18.3920000   21.2200000  
C 14.5100000   17.7550000   20.1620000  
C 15.0560000   16.5820000   19.7280000  
C 16.2440000   16.0750000   20.2840000  
C 16.5550000   18.7800000   22.9970000  
C 15.6360000   19.8400000   22.8610000  
N 14.7790000   19.5490000   21.8060000  
O 16.6500000   21.2100000   24.5300000  
C 15.6540000   21.0740000   23.6260000  
O 14.7500000   21.8380000   23.4820000  
O 14.4360000   15.7570000   18.8300000  
O 16.7680000   14.8990000   19.7760000  
H 17.3810000   18.7610000   23.7710000  
H 17.2270000   20.5000000   24.3680000  
H 14.1090000   20.2510000   21.4400000  
H 13.5510000   16.1430000   18.6760000  
H 16.0540000   14.6750000   19.0720000  
C 13.2300000   18.3440000   19.5710000  
C 13.1600000   18.8210000   18.2370000  
C 12.0330000   19.3720000   17.7250000  
C 10.8040000   19.3050000   18.4420000  
C 10.8140000   18.7620000   19.7470000  
C 12.0010000   18.2100000   20.2910000  
C 14.0660000   18.9060000   17.0620000  
C 13.4160000   19.4380000   15.9310000  
N 12.1430000   19.7750000   16.4040000  
O 15.2180000   19.0770000   14.4380000  
C 13.9250000   19.5070000   14.5260000  
O 13.2710000   19.9290000   13.5740000  
O  9.7060000   18.7260000   20.4800000  
O 12.0000000   17.6450000   21.5290000  
H 15.1140000   18.5840000   17.1300000  
H 15.4760000   18.8230000   15.3050000  
H 11.3800000   20.1760000   15.8460000  
H  9.8050000   18.1520000   21.2410000  
H 12.9090000   17.3790000   21.7670000  
H  9.8760000   19.6270000   17.9770000  
