76
110 
C 10.2790000   14.1060000   24.0350000  
C  9.4550000   14.9110000   23.1530000  
C 10.0280000   15.7420000   22.2700000  
C 11.3910000   15.6970000   21.9440000  
C 12.3020000   15.0370000   22.7530000  
C 11.8280000   14.1260000   23.8770000  
C  9.4220000   16.6670000   21.3420000  
C 10.3950000   17.1160000   20.4430000  
N 11.5900000   16.6320000   20.9840000  
O  8.8930000   18.3860000   19.1480000  
C 10.1930000   18.0210000   19.3600000  
O 11.0790000   18.3620000   18.6590000  
O 12.5360000   13.5960000   24.6960000  
O  9.7580000   13.4750000   24.9000000  
H  8.4130000   14.8440000   23.2400000  
H  8.2770000   16.7640000   21.3300000  
H  8.3760000   17.9200000   19.8360000  
H 12.5070000   16.7590000   20.5480000  
C 13.7170000   15.2740000   22.4510000  
C 14.3200000   16.4560000   22.7930000  
C 15.6020000   16.7580000   22.4260000  
C 16.4800000   15.8570000   21.7830000  
C 15.8600000   14.6510000   21.3860000  
C 14.5070000   14.3820000   21.6900000  
C 13.7980000   17.6950000   23.3290000  
C 14.8450000   18.5940000   23.5330000  
N 15.9750000   18.0510000   22.9430000  
O 13.4960000   20.0020000   24.7780000  
C 14.6840000   19.9440000   24.0830000  
O 15.5650000   20.8020000   24.0960000  
O 16.5950000   13.6760000   20.7940000  
O 14.0620000   13.1620000   21.3110000  
H 12.7070000   17.8850000   23.5260000  
H 13.1140000   19.1660000   24.5770000  
H 16.8810000   18.4550000   22.7550000  
H 17.4690000   14.0360000   20.7830000  
H 14.6610000   12.7520000   20.6540000  
C 17.9230000   16.2590000   21.5680000  
C 18.8940000   16.3510000   22.5670000  
C 20.1550000   16.7470000   22.2450000  
C 20.5950000   17.1070000   20.9410000  
C 19.6460000   17.0740000   19.9190000  
C 18.3530000   16.7150000   20.2750000  
C 18.9950000   16.1280000   23.9930000  
C 20.2680000   16.4360000   24.3900000  
N 21.0360000   16.7770000   23.2710000  
O 19.8620000   16.3130000   26.8240000  
C 20.7060000   16.5860000   25.7770000  
O 21.8100000   17.0340000   26.0220000  
O 20.0190000   17.5530000   18.6600000  
O 17.4340000   16.7440000   19.3170000  
H 18.3270000   15.7940000   24.7020000  
H 19.0280000   16.0860000   26.3360000  
H 22.0000000   17.0350000   23.2310000  
H 21.0250000   17.6580000   18.5390000  
H 17.8800000   17.1560000   18.5600000  
C 22.0170000   17.3790000   20.5500000  
C 22.9150000   16.4430000   19.9650000  
C 24.2220000   16.7560000   19.7650000  
C 24.7280000   18.0220000   19.9140000  
C 23.8390000   18.9980000   20.2940000  
C 22.5050000   18.7380000   20.6140000  
C 22.7570000   15.0910000   19.5800000  
C 24.0210000   14.6280000   19.2770000  
N 24.9090000   15.6770000   19.3500000  
O 23.2890000   12.3920000   19.0040000  
C 24.2910000   13.2260000   18.7320000  
O 25.2690000   12.8470000   18.1940000  
O 24.2530000   20.2420000   20.2260000  
O 21.7380000   19.7300000   21.1760000  
H 21.8310000   14.5330000   19.5780000  
H 22.7170000   12.8790000   19.5480000  
H 25.8290000   15.6780000   18.9130000  
H 23.7500000   20.7510000   20.9150000  
H 21.1090000   19.2740000   21.7960000  
H 25.7730000   18.3190000   19.6610000  
