76
110 
C 10.6500000   14.8790000   25.5880000  
C 10.1240000   16.2720000   25.6190000  
C 10.8840000   17.2600000   25.2160000  
C 12.0840000   17.0430000   24.6010000  
C 12.7930000   15.8840000   24.5090000  
C 12.0960000   14.7020000   24.9660000  
C 10.7260000   18.7070000   25.3750000  
C 11.8560000   19.3200000   24.9060000  
N 12.7240000   18.2560000   24.5090000  
O 11.0820000   21.5620000   25.0630000  
C 12.1580000   20.7790000   24.9090000  
O 13.2670000   21.2310000   24.6680000  
O 12.5590000   13.6220000   24.7410000  
O 10.1100000   13.9790000   26.1270000  
H  9.1970000   16.4180000   26.1080000  
H  9.9190000   19.1260000   25.9300000  
H 10.3130000   20.9040000   25.1430000  
H 13.6910000   18.3030000   24.2410000  
C 14.0140000   15.8740000   23.7570000  
C 15.2960000   16.1640000   24.3490000  
C 16.4250000   16.2610000   23.5980000  
C 16.4700000   16.0490000   22.2010000  
C 15.2100000   15.7530000   21.6040000  
C 14.0210000   15.7670000   22.3420000  
C 15.6900000   16.6570000   25.6560000  
C 17.0950000   16.9650000   25.6270000  
N 17.5100000   16.7250000   24.3090000  
O 17.3810000   17.4560000   27.9530000  
C 17.9500000   17.4100000   26.7530000  
O 19.0930000   17.7460000   26.6930000  
O 15.1860000   15.4870000   20.2770000  
O 12.8800000   15.4350000   21.6830000  
H 15.0520000   16.7260000   26.5260000  
H 16.5010000   17.2650000   27.8720000  
H 18.4210000   16.8620000   23.9410000  
H 14.3260000   15.1500000   19.9440000  
H 12.2110000   15.0740000   22.3970000  
C 17.6960000   16.2790000   21.3320000  
C 18.9250000   15.6400000   21.5410000  
C 19.9210000   15.7730000   20.6120000  
C 19.9990000   16.6320000   19.5090000  
C 18.8020000   17.3580000   19.3330000  
C 17.7480000   17.2330000   20.2740000  
C 19.4920000   14.6670000   22.4560000  
C 20.8020000   14.3990000   22.0680000  
N 21.0270000   15.0210000   20.8600000  
O 21.2130000   13.0080000   23.9470000  
C 21.7570000   13.4940000   22.7630000  
O 22.8710000   13.2250000   22.4350000  
O 18.6870000   18.1430000   18.2040000  
O 16.6660000   18.0700000   20.0760000  
H 18.9250000   14.1900000   23.2660000  
H 20.3200000   13.3820000   23.8560000  
H 21.9020000   15.0570000   20.4080000  
H 19.5400000   17.9500000   17.6930000  
H 16.7700000   18.4920000   19.1640000  
C 21.2020000   16.8320000   18.6630000  
C 21.1080000   16.4830000   17.2730000  
C 22.1530000   16.5320000   16.4430000  
C 23.4170000   16.9490000   16.8830000  
C 23.5520000   17.4090000   18.2540000  
C 22.4820000   17.2220000   19.1870000  
C 20.0150000   15.9210000   16.4980000  
C 20.4720000   15.6980000   15.1920000  
N 21.8250000   16.0780000   15.1860000  
O 18.5290000   14.6110000   14.4660000  
C 19.7450000   15.0290000   14.0810000  
O 20.1960000   14.9720000   12.9320000  
O 24.7820000   17.8780000   18.7540000  
O 22.6100000   17.6210000   20.5120000  
H 19.0900000   15.5010000   16.9210000  
H 18.3920000   15.1610000   15.2790000  
H 22.4310000   15.9110000   14.4570000  
H 24.7250000   18.1180000   19.7350000  
H 21.7810000   17.2930000   21.0250000  
H 24.1970000   17.0430000   16.0750000  
