76
110 
C 11.9680000   15.7260000   27.2640000  
C 11.0060000   16.8050000   26.9580000  
C 11.2550000   17.5630000   25.8300000  
C 12.3430000   17.4260000   24.9970000  
C 13.3780000   16.5230000   25.1640000  
C 13.3020000   15.6560000   26.3680000  
C 10.6550000   18.7500000   25.4550000  
C 11.2110000   19.3090000   24.3540000  
N 12.3140000   18.4830000   24.0830000  
O  9.6580000   21.1640000   23.9660000  
C 10.8260000   20.6210000   23.7430000  
O 11.5900000   21.1290000   22.9370000  
O 14.0780000   14.7610000   26.5920000  
O 11.8490000   15.0000000   28.1880000  
H 10.2310000   17.0140000   27.6840000  
H  9.8660000   19.2920000   25.9980000  
H  9.2730000   20.6040000   24.6320000  
H 12.9060000   18.7320000   23.3490000  
C 14.4210000   16.4890000   24.1690000  
C 15.6930000   16.9750000   24.4820000  
C 16.7080000   16.8600000   23.6270000  
C 16.6280000   16.3760000   22.3490000  
C 15.3770000   15.8430000   22.0050000  
C 14.3110000   15.7380000   22.9240000  
C 16.1030000   17.7550000   25.6310000  
C 17.4500000   18.0050000   25.4570000  
N 17.8200000   17.4250000   24.2390000  
O 17.9500000   19.1670000   27.4480000  
C 18.4580000   18.6370000   26.3170000  
O 19.5440000   18.8740000   25.8310000  
O 15.2350000   15.2320000   20.7860000  
O 13.1400000   15.0470000   22.6840000  
H 15.5000000   18.1300000   26.4540000  
H 16.9850000   18.9290000   27.3920000  
H 18.7290000   17.6140000   23.7630000  
H 15.9820000   15.5260000   20.1320000  
H 13.3170000   14.5850000   21.8460000  
C 17.8240000   16.2600000   21.4650000  
C 18.3130000   15.0110000   21.0010000  
C 19.3140000   14.9440000   20.0630000  
C 20.0960000   16.0160000   19.5600000  
C 19.6010000   17.2820000   20.0360000  
C 18.5100000   17.4130000   20.9600000  
C 17.8090000   13.6560000   21.1550000  
C 18.5500000   12.8340000   20.3710000  
N 19.4830000   13.6390000   19.7150000  
O 17.6090000   10.8030000   21.3300000  
C 18.4630000   11.3180000   20.4190000  
O 19.1970000   10.5720000   19.7650000  
O 20.2680000   18.3790000   19.5480000  
O 17.9740000   18.5850000   21.2590000  
H 17.1170000   13.3580000   21.9070000  
H 17.1830000   11.5650000   21.7760000  
H 20.1210000   13.2550000   18.9870000  
H 21.0370000   18.0360000   19.0360000  
H 18.2320000   19.2450000   20.5700000  
C 21.3850000   15.8700000   18.8390000  
C 21.5420000   16.3990000   17.5150000  
C 22.7420000   16.2960000   16.8670000  
C 23.8430000   15.6460000   17.4540000  
C 23.5720000   14.9200000   18.6310000  
C 22.4430000   15.1410000   19.3650000  
C 20.5870000   17.0750000   16.5700000  
C 21.3100000   17.2410000   15.4060000  
N 22.5880000   16.7140000   15.5500000  
O 19.3690000   18.0860000   14.2230000  
C 20.7270000   17.8130000   14.1730000  
O 21.4230000   17.9740000   13.1640000  
O 24.4980000   14.0780000   19.1940000  
O 22.2580000   14.5180000   20.6060000  
H 19.5120000   17.2240000   16.6680000  
H 19.1420000   17.7280000   15.0950000  
H 23.3120000   16.6720000   14.7970000  
H 24.1620000   13.5730000   19.9380000  
H 21.3700000   14.7650000   20.8850000  
H 24.8420000   15.5590000   16.9820000  
