76
110 
C 13.2750000   13.5540000   15.8720000  
C 13.0100000   12.2760000   16.4950000  
C 13.2640000   12.0160000   17.7590000  
C 13.8420000   12.8870000   18.6270000  
C 14.3050000   14.1360000   18.2100000  
C 14.0310000   14.6020000   16.7740000  
C 12.8200000   10.9400000   18.5620000  
C 13.1970000   11.1260000   19.8730000  
N 13.7900000   12.4070000   19.9070000  
O 12.2210000    9.2810000   20.9770000  
C 12.9990000   10.3520000   21.0690000  
O 13.4520000   10.6620000   22.1100000  
O 14.4150000   15.6850000   16.3370000  
O 13.0050000   13.8090000   14.7050000  
H 12.4430000   11.6110000   15.8920000  
H 12.3120000   10.0170000   18.1470000  
H 12.0250000    9.1250000   20.0730000  
H 14.0200000   12.9710000   20.7680000  
C 15.0660000   14.9440000   19.1870000  
C 16.4260000   15.1360000   18.8420000  
C 17.2700000   15.6600000   19.7730000  
C 16.8200000   16.2510000   20.9610000  
C 15.4420000   16.1100000   21.2690000  
C 14.5410000   15.3950000   20.4230000  
C 17.3010000   14.7130000   17.7260000  
C 18.6550000   14.9280000   18.1230000  
N 18.5530000   15.6680000   19.3150000  
O 19.5020000   13.7580000   16.1860000  
C 19.8100000   14.5160000   17.2720000  
O 20.9410000   14.9890000   17.4330000  
O 14.9150000   16.5890000   22.4780000  
O 13.2030000   15.3850000   20.6380000  
H 17.0130000   14.3560000   16.7440000  
H 18.5290000   13.7070000   16.2360000  
H 19.3720000   16.0780000   19.7750000  
H 15.6900000   17.1100000   22.8060000  
H 12.9720000   15.6150000   21.5540000  
C 17.8050000   16.9100000   21.8860000  
C 17.8260000   18.3230000   22.0500000  
C 18.7740000   18.8940000   22.8750000  
C 19.6390000   18.1810000   23.7020000  
C 19.5210000   16.7880000   23.6430000  
C 18.6850000   16.1690000   22.6410000  
C 16.9170000   19.3820000   21.6430000  
C 17.3480000   20.5600000   22.2910000  
N 18.5550000   20.2760000   23.0040000  
O 15.4020000   21.8090000   21.6750000  
C 16.5650000   21.8260000   22.3970000  
O 16.8350000   22.7800000   23.0880000  
O 20.4280000   16.0060000   24.4090000  
O 18.6620000   14.8000000   22.5480000  
H 16.0550000   19.1980000   21.0030000  
H 15.3800000   21.0610000   21.0430000  
H 19.1210000   20.9480000   23.4950000  
H 20.9420000   16.6950000   24.8520000  
H 19.4790000   14.4260000   22.8310000  
C 20.5580000   18.8380000   24.5780000  
C 20.2240000   19.0860000   25.9030000  
C 21.0410000   19.7050000   26.7990000  
C 22.2170000   20.3450000   26.3710000  
C 22.4790000   20.2900000   25.0060000  
C 21.7390000   19.4610000   24.1030000  
C 19.1950000   18.5490000   26.6530000  
C 19.3640000   18.9210000   27.9700000  
N 20.5790000   19.6090000   28.0190000  
O 17.1710000   18.1110000   28.7490000  
C 18.3730000   18.7470000   29.0860000  
O 18.5980000   19.1400000   30.2370000  
O 23.4440000   21.1380000   24.4260000  
O 22.0770000   19.2970000   22.7810000  
H 18.3160000   18.1030000   26.1640000  
H 17.1250000   17.9790000   27.7970000  
H 21.0700000   19.7380000   28.8760000  
H 23.5120000   21.0930000   23.4490000  
H 21.3030000   19.0790000   22.3330000  
H 22.7790000   20.9600000   27.0310000  
