76
110 
C  9.7850000   14.4590000   22.4070000  
C  9.5110000   13.9790000   21.0690000  
C 10.5060000   13.9330000   20.1360000  
C 11.7930000   14.3380000   20.4520000  
C 12.2530000   14.8880000   21.6230000  
C 11.2310000   15.0560000   22.7050000  
C 10.4870000   13.4270000   18.8070000  
C 11.7870000   13.5230000   18.3520000  
N 12.5820000   14.0680000   19.4100000  
O 11.3570000   12.6440000   16.1090000  
C 12.2890000   13.1450000   16.9240000  
O 13.4110000   13.4590000   16.5280000  
O 11.5660000   15.5800000   23.7390000  
O  8.9320000   14.2430000   23.2400000  
H  8.5850000   13.5320000   20.8650000  
H  9.7410000   13.0040000   18.1480000  
H 10.5110000   12.7240000   16.5630000  
H 13.5560000   14.3990000   19.3700000  
C 13.6600000   15.2690000   21.6620000  
C 14.1330000   16.3370000   20.8980000  
C 15.3870000   16.7050000   21.0240000  
C 16.4010000   16.0270000   21.7070000  
C 15.9340000   14.9710000   22.5240000  
C 14.5460000   14.5670000   22.4920000  
C 13.5570000   17.3280000   19.9720000  
C 14.5320000   18.1610000   19.5340000  
N 15.7120000   17.8620000   20.2760000  
O 13.1020000   19.6070000   18.3230000  
C 14.3680000   19.3990000   18.7470000  
O 15.2700000   20.1860000   18.4480000  
O 16.8150000   14.2060000   23.2440000  
O 14.1240000   13.5160000   23.3120000  
H 12.4920000   17.4100000   19.6800000  
H 12.5750000   18.8050000   18.5840000  
H 16.5690000   18.3200000   20.1450000  
H 17.5560000   14.7600000   23.3900000  
H 14.7570000   13.4290000   24.0330000  
C 17.8510000   16.5050000   21.7390000  
C 18.4630000   16.7490000   22.9550000  
C 19.7220000   17.3280000   22.9370000  
C 20.4800000   17.8100000   21.8580000  
C 19.8920000   17.3920000   20.6570000  
C 18.6190000   16.7890000   20.5790000  
C 18.0970000   16.5520000   24.3690000  
C 19.1310000   17.0930000   25.1630000  
N 20.0740000   17.5810000   24.2290000  
O 18.2660000   16.5310000   27.2260000  
C 19.2610000   17.2490000   26.6020000  
O 20.2300000   17.7970000   27.1060000  
O 20.6040000   17.7810000   19.5740000  
O 18.1280000   16.5220000   19.3600000  
H 17.0880000   16.3100000   24.7140000  
H 17.5700000   16.1560000   26.6070000  
H 20.8770000   18.1130000   24.4680000  
H 21.5440000   18.0560000   19.9130000  
H 18.8910000   16.6580000   18.7860000  
C 21.8260000   18.4870000   21.9490000  
C 22.8720000   17.8490000   22.7010000  
C 24.1610000   18.3040000   22.6730000  
C 24.5770000   19.3820000   22.0060000  
C 23.5590000   20.1700000   21.3950000  
C 22.2020000   19.7080000   21.3020000  
C 22.8860000   16.5880000   23.4540000  
C 24.1830000   16.3390000   23.8430000  
N 24.9490000   17.3780000   23.3420000  
O 23.8030000   14.4880000   25.1600000  
C 24.7460000   15.3550000   24.7810000  
O 25.9050000   15.2850000   25.1040000  
O 23.9400000   21.3260000   20.7200000  
O 21.2720000   20.4270000   20.6550000  
H 22.0280000   15.8580000   23.6260000  
H 22.9930000   14.8420000   24.8260000  
H 25.9190000   17.5450000   23.5610000  
H 23.0550000   21.7090000   20.4820000  
H 20.3940000   20.0770000   20.9510000  
H 25.5900000   19.6700000   21.9590000  
