76
110 
C 14.7440000   17.3720000   28.9270000  
C 15.9300000   18.0010000   29.6160000  
C 17.1210000   18.0830000   28.9650000  
C 17.2380000   17.7760000   27.5650000  
C 16.2430000   17.2540000   26.8480000  
C 14.9580000   16.8430000   27.4560000  
C 18.3670000   18.6920000   29.3280000  
C 19.2480000   18.5470000   28.2160000  
N 18.5070000   18.1390000   27.1050000  
O 21.3140000   18.8940000   29.4450000  
C 20.7010000   18.6870000   28.1850000  
O 21.3440000   18.5870000   27.1540000  
O 14.0070000   16.3950000   26.8750000  
O 13.6570000   17.2530000   29.4200000  
H 15.7150000   18.2490000   30.6380000  
H 18.5550000   19.0570000   30.3690000  
H 20.5410000   19.1580000   30.0480000  
H 18.8440000   17.9760000   26.1890000  
C 16.4660000   17.2030000   25.4480000  
C 16.8660000   15.9880000   24.8560000  
C 17.2220000   15.9850000   23.5570000  
C 17.1220000   17.0430000   22.6500000  
C 16.6570000   18.2650000   23.1630000  
C 16.3300000   18.3690000   24.5650000  
C 17.0570000   14.6410000   25.3060000  
C 17.6250000   13.9770000   24.2770000  
N 17.6940000   14.7780000   23.1280000  
O 17.7610000   11.8520000   25.3730000  
C 17.9480000   12.5430000   24.2380000  
O 18.4260000   12.0240000   23.2510000  
O 16.5080000   19.3430000   22.3920000  
O 15.9180000   19.5110000   25.1400000  
H 16.8290000   14.2450000   26.2920000  
H 17.4100000   12.5150000   26.0170000  
H 18.0190000   14.5460000   22.1780000  
H 16.7180000   19.1190000   21.3980000  
H 15.7840000   20.1720000   24.4230000  
C 17.5290000   16.8170000   21.2390000  
C 16.6220000   16.1430000   20.3240000  
C 17.0280000   15.8840000   18.9910000  
C 18.2560000   16.2140000   18.3950000  
C 19.1450000   16.8690000   19.3170000  
C 18.8050000   17.1310000   20.6920000  
C 15.3080000   15.6110000   20.4580000  
C 14.9800000   15.0810000   19.1840000  
N 16.0360000   15.2320000   18.3070000  
O 12.6690000   14.6680000   19.7070000  
C 13.6700000   14.6400000   18.7410000  
O 13.3830000   14.2520000   17.6110000  
O 20.4400000   17.1050000   18.9550000  
O 19.7920000   17.5910000   21.5810000  
H 14.6140000   15.7630000   21.2490000  
H 13.1560000   14.9810000   20.5170000  
H 16.0330000   15.0770000   17.2880000  
H 20.4860000   17.0050000   17.9850000  
H 20.6340000   17.4840000   21.1950000  
C 18.5500000   15.8920000   16.9800000  
C 17.6820000   16.2400000   15.8820000  
C 17.9910000   15.8780000   14.6390000  
C 19.1260000   15.0960000   14.2970000  
C 20.0090000   14.7290000   15.3450000  
C 19.6700000   15.0760000   16.6660000  
C 16.5090000   17.0150000   15.8470000  
C 16.2220000   17.2060000   14.5060000  
N 17.1300000   16.4980000   13.7770000  
O 14.5910000   18.8860000   14.8840000  
C 15.2410000   18.1500000   13.9920000  
O 15.0720000   18.2580000   12.7890000  
O 20.8710000   13.7750000   15.0590000  
O 20.3100000   14.3590000   17.6620000  
H 15.9490000   17.4980000   16.7140000  
H 15.0190000   18.6250000   15.7060000  
H 17.3050000   16.5520000   12.7930000  
H 21.1150000   13.3170000   15.8900000  
H 20.1700000   14.9020000   18.4800000  
H 19.3050000   14.7400000   13.2740000  
