76
110 
C 17.3120000   17.3630000   29.2410000  
C 18.6580000   16.8180000   29.6630000  
C 19.5420000   16.3830000   28.7230000  
C 19.3210000   16.4870000   27.3610000  
C 18.1500000   17.0540000   26.8270000  
C 17.0390000   17.4400000   27.6850000  
C 20.8150000   15.7230000   28.8270000  
C 21.2870000   15.3840000   27.5140000  
N 20.3390000   15.8970000   26.6180000  
O 23.4160000   14.3290000   28.0650000  
C 22.5260000   14.6650000   27.1020000  
O 22.7530000   14.3430000   25.9460000  
O 16.0110000   17.8810000   27.2430000  
O 16.4960000   17.6790000   30.0880000  
H 18.9100000   16.6270000   30.6970000  
H 21.2640000   15.3500000   29.7160000  
H 23.1300000   14.8130000   28.8310000  
H 20.2690000   15.8530000   25.6300000  
C 17.9910000   16.9490000   25.3900000  
C 17.6470000   15.7530000   24.6800000  
C 17.4890000   15.7160000   23.3440000  
C 17.8210000   16.8200000   22.4580000  
C 18.2860000   17.9620000   23.0940000  
C 18.2470000   18.0420000   24.5230000  
C 17.1790000   14.4970000   25.2540000  
C 16.8130000   13.6990000   24.1130000  
N 17.0430000   14.5210000   22.9610000  
O 15.7220000   11.9480000   25.3910000  
C 16.0310000   12.4310000   24.1230000  
O 15.7130000   11.9120000   23.1080000  
O 18.8280000   18.9690000   22.3260000  
O 18.5940000   19.2010000   25.1540000  
H 17.1990000   14.2640000   26.2960000  
H 16.1680000   12.5950000   26.0440000  
H 16.9470000   14.1630000   22.0300000  
H 18.7580000   19.6960000   22.9580000  
H 18.7430000   19.1260000   26.0380000  
C 17.5940000   16.7230000   20.9630000  
C 16.2480000   16.7980000   20.4470000  
C 15.9760000   16.6950000   19.0980000  
C 16.9850000   16.5240000   18.1420000  
C 18.3300000   16.6840000   18.5680000  
C 18.6280000   16.7270000   19.9460000  
C 14.9760000   16.6210000   21.0930000  
C 14.0140000   16.2480000   20.1590000  
N 14.6370000   16.3540000   18.9390000  
O 12.0100000   15.8600000   21.5290000  
C 12.5800000   15.7670000   20.3130000  
O 11.9380000   15.4550000   19.3560000  
O 19.3800000   16.6900000   17.6940000  
O 19.9270000   16.7790000   20.4220000  
H 14.7460000   16.7060000   22.2120000  
H 12.7640000   15.9600000   22.1290000  
H 14.2060000   16.3380000   18.0400000  
H 18.8340000   16.6480000   16.8510000  
H 20.4750000   16.3520000   19.7350000  
C 16.5640000   16.3270000   16.7360000  
C 16.2880000   17.4270000   15.9380000  
C 16.0360000   17.3760000   14.6020000  
C 16.0720000   16.1560000   13.9370000  
C 16.3840000   15.0500000   14.6840000  
C 16.6980000   15.0910000   16.0690000  
C 16.1520000   18.8240000   16.3270000  
C 15.8200000   19.5830000   15.2650000  
N 15.7270000   18.6990000   14.1510000  
O 15.6620000   21.6450000   16.4680000  
C 15.5280000   21.0390000   15.2760000  
O 15.4250000   21.7520000   14.3140000  
O 16.5020000   13.9090000   13.9850000  
O 17.1370000   13.9860000   16.6980000  
H 16.3750000   19.1580000   17.3070000  
H 15.7210000   20.9230000   17.1360000  
H 15.3210000   18.9670000   13.2440000  
H 16.7110000   13.2250000   14.6160000  
H 17.1460000   14.3190000   17.6320000  
H 15.9250000   16.1100000   12.8570000  
