76
110 
C 19.5430000   17.3910000   29.1180000  
C 20.4700000   16.2110000   29.0480000  
C 20.5360000   15.4040000   27.9610000  
C 19.9790000   15.7460000   26.7710000  
C 19.0760000   16.7520000   26.6440000  
C 18.7650000   17.6650000   27.7780000  
C 21.3790000   14.2450000   27.7200000  
C 21.2010000   13.8720000   26.4030000  
N 20.3710000   14.8310000   25.8570000  
O 22.5060000   11.9390000   26.5240000  
C 21.7980000   12.6800000   25.7240000  
O 21.7220000   12.4430000   24.5150000  
O 17.9280000   18.5470000   27.7760000  
O 19.4360000   18.0900000   30.1030000  
H 21.0720000   16.0000000   29.9650000  
H 21.9000000   13.7230000   28.5400000  
H 22.6060000   12.4120000   27.3400000  
H 20.2210000   14.9040000   24.8430000  
C 18.5610000   16.9760000   25.3090000  
C 17.7350000   15.9830000   24.7960000  
C 17.3650000   15.9850000   23.4660000  
C 17.6620000   17.0310000   22.5490000  
C 18.3270000   18.1390000   23.1360000  
C 18.7570000   18.1270000   24.5110000  
C 17.2980000   14.7040000   25.2950000  
C 16.5970000   14.0850000   24.2810000  
N 16.7500000   14.8230000   23.0810000  
O 15.9240000   12.0640000   25.3560000  
C 15.8860000   12.7460000   24.2180000  
O 15.2870000   12.3070000   23.2440000  
O 18.7630000   19.1770000   22.3630000  
O 19.3770000   19.1880000   25.1570000  
H 17.2310000   14.3550000   26.2380000  
H 16.3740000   12.6200000   25.9780000  
H 16.4050000   14.5620000   22.2510000  
H 19.0570000   19.9150000   22.9440000  
H 19.5480000   18.9190000   26.0290000  
C 17.4150000   16.7880000   21.1050000  
C 16.1400000   17.0010000   20.6300000  
C 15.8290000   16.8820000   19.3190000  
C 16.8110000   16.6250000   18.3370000  
C 18.1700000   16.4520000   18.8170000  
C 18.4040000   16.4050000   20.1980000  
C 15.0290000   17.5150000   21.3450000  
C 13.9920000   17.4270000   20.4230000  
N 14.4850000   17.0050000   19.1350000  
O 12.2470000   18.0180000   21.9780000  
C 12.5500000   17.7880000   20.6610000  
O 11.7820000   17.9460000   19.7210000  
O 19.0940000   15.9410000   17.9460000  
O 19.5690000   15.9560000   20.7350000  
H 14.9750000   17.6510000   22.4460000  
H 13.0350000   17.6740000   22.4690000  
H 13.8860000   16.8210000   18.3500000  
H 18.6640000   16.0050000   16.9990000  
H 20.1710000   15.8990000   19.9380000  
C 16.4270000   16.5280000   16.9370000  
C 15.8330000   17.6200000   16.1790000  
C 15.2220000   17.4430000   15.0010000  
C 15.2180000   16.2290000   14.3610000  
C 15.8880000   15.1250000   14.9680000  
C 16.4870000   15.2960000   16.2370000  
C 15.6530000   18.9650000   16.6000000  
C 14.8240000   19.6040000   15.6430000  
N 14.5340000   18.6430000   14.6400000  
O 14.9060000   21.6240000   16.7370000  
C 14.4790000   21.0380000   15.6260000  
O 13.9040000   21.6420000   14.7300000  
O 15.7800000   13.9050000   14.4460000  
O 17.0950000   14.1770000   16.7340000  
H 15.8780000   19.3480000   17.6080000  
H 15.2150000   20.9000000   17.2250000  
H 13.7450000   18.7230000   13.9790000  
H 15.7400000   13.2780000   15.1860000  
H 17.3580000   14.3140000   17.6390000  
H 14.7020000   16.0080000   13.3970000  
