76
110 
C  9.8560000   16.8880000   23.6190000  
C  9.9200000   18.1200000   24.3140000  
C 11.1510000   18.7020000   24.4670000  
C 12.3200000   18.2120000   23.9040000  
C 12.3480000   17.1040000   23.1070000  
C 11.1530000   16.4010000   22.8680000  
C 11.4340000   19.9180000   25.0330000  
C 12.7780000   20.2470000   24.8370000  
N 13.3310000   19.1380000   24.1660000  
O 12.9220000   22.4580000   25.8520000  
C 13.5430000   21.4820000   25.1940000  
O 14.6330000   21.6440000   24.7970000  
O 11.1460000   15.4100000   22.1800000  
O  8.8920000   16.1970000   23.5200000  
H  9.0510000   18.4630000   24.8610000  
H 10.7360000   20.4930000   25.5250000  
H 11.9900000   22.1710000   25.9450000  
H 14.2820000   19.0790000   23.8210000  
C 13.6910000   16.7650000   22.6170000  
C 14.5100000   15.9260000   23.3680000  
C 15.7530000   15.6770000   22.9940000  
C 16.3980000   16.2100000   21.8480000  
C 15.5620000   17.0500000   21.0100000  
C 14.2660000   17.3760000   21.4450000  
C 14.3050000   15.2900000   24.6310000  
C 15.5100000   14.6480000   24.8710000  
N 16.4150000   14.8480000   23.8320000  
O 14.7330000   13.5470000   26.8980000  
C 15.7500000   13.8300000   26.1090000  
O 16.8390000   13.3320000   26.3070000  
O 16.1180000   17.6000000   19.8700000  
O 13.6060000   18.3580000   20.7030000  
H 13.4390000   15.4260000   25.2650000  
H 14.0320000   13.5760000   26.2770000  
H 17.3460000   14.4370000   23.6620000  
H 16.8280000   17.0200000   19.6040000  
H 14.2500000   18.6040000   19.9810000  
C 17.8140000   15.9760000   21.5310000  
C 18.0970000   15.2300000   20.3890000  
C 19.4000000   14.9050000   20.1300000  
C 20.5080000   15.3480000   20.8800000  
C 20.2280000   16.1380000   21.9970000  
C 18.8830000   16.4290000   22.3590000  
C 17.2210000   14.5890000   19.4870000  
C 18.0780000   14.1110000   18.4660000  
N 19.4520000   14.3170000   18.8730000  
O 16.3050000   13.2720000   17.1310000  
C 17.6660000   13.4340000   17.2670000  
O 18.4540000   13.0820000   16.4420000  
O 21.2960000   16.6590000   22.7490000  
O 18.6730000   17.0400000   23.5310000  
H 16.1280000   14.4930000   19.5430000  
H 15.8800000   13.4620000   17.9800000  
H 20.2800000   13.9640000   18.3230000  
H 22.0640000   17.1060000   22.3080000  
H 19.5050000   17.3840000   23.9210000  
C 21.9010000   15.1690000   20.3640000  
C 22.5140000   16.2340000   19.7300000  
C 23.7130000   16.0520000   19.0590000  
C 24.5210000   14.8950000   19.1390000  
C 24.0040000   13.8520000   19.9980000  
C 22.6870000   13.9600000   20.5010000  
C 22.0390000   17.5710000   19.5270000  
C 22.9420000   18.1420000   18.6850000  
N 23.9880000   17.2670000   18.5640000  
O 21.7720000   20.2320000   18.3960000  
C 22.9340000   19.5410000   18.2110000  
O 23.9190000   20.0830000   17.7720000  
O 24.7460000   12.7360000   20.2620000  
O 22.1640000   12.9410000   21.3230000  
H 21.0940000   17.9610000   19.8110000  
H 21.0480000   19.6810000   18.5940000  
H 24.7950000   17.4780000   17.9520000  
H 24.2880000   12.1240000   20.9020000  
H 21.2090000   13.1940000   21.5640000  
H 25.4800000   14.7400000   18.6180000  
