76
110 
C 21.5420000   10.7560000   19.6080000  
C 22.2040000   10.1460000   20.7470000  
C 21.9560000   10.6990000   21.9870000  
C 21.1100000   11.7840000   22.2060000  
C 20.3850000   12.4300000   21.2190000  
C 20.4460000   11.8530000   19.8920000  
C 22.4030000   10.3820000   23.2620000  
C 21.8030000   11.1760000   24.2160000  
N 21.0090000   12.0710000   23.4960000  
O 22.6770000    9.9570000   26.0930000  
C 21.8150000   10.9550000   25.6420000  
O 21.1810000   11.5830000   26.4740000  
O 19.7170000   12.2910000   18.9440000  
O 21.6860000   10.3210000   18.4530000  
H 22.8280000    9.2580000   20.5310000  
H 23.0400000    9.5270000   23.5060000  
H 23.1870000    9.7190000   25.2760000  
H 20.4440000   12.8010000   23.9280000  
C 19.3810000   13.4350000   21.5570000  
C 19.7780000   14.7800000   21.6460000  
C 18.8950000   15.7610000   21.8690000  
C 17.5260000   15.6070000   21.9990000  
C 17.0550000   14.2270000   21.8920000  
C 18.0120000   13.1550000   21.6340000  
C 21.0570000   15.4170000   21.5530000  
C 20.8890000   16.7980000   21.7350000  
N 19.5310000   16.9660000   21.9720000  
O 23.1060000   17.5170000   21.1600000  
C 21.9230000   17.9150000   21.6460000  
O 21.7340000   19.0680000   21.9560000  
O 15.7830000   13.8690000   22.0580000  
O 17.5240000   11.9460000   21.3850000  
H 22.0120000   14.9130000   21.4820000  
H 23.1050000   16.4790000   21.1710000  
H 19.0240000   17.8680000   22.2430000  
H 15.2070000   14.5880000   22.4980000  
H 16.6450000   11.8890000   21.8020000  
C 16.5120000   16.6800000   22.0950000  
C 16.3750000   17.6680000   21.1840000  
C 15.5720000   18.7180000   21.3240000  
C 14.8530000   19.0320000   22.5150000  
C 14.8930000   18.0080000   23.4640000  
C 15.7250000   16.8670000   23.2400000  
C 16.9660000   17.8950000   19.8900000  
C 16.5310000   19.1050000   19.3850000  
N 15.6300000   19.6420000   20.3130000  
O 18.0240000   19.1090000   17.4860000  
C 17.0280000   19.8100000   18.1280000  
O 16.5970000   20.8840000   17.8390000  
O 14.1920000   18.0000000   24.6600000  
O 15.8780000   15.9600000   24.2850000  
H 17.6740000   17.2290000   19.3220000  
H 18.1980000   18.3540000   17.9830000  
H 15.2450000   20.6180000   20.2900000  
H 13.6160000   18.7960000   24.5810000  
H 15.1700000   16.2440000   24.9790000  
C 13.9180000   20.2420000   22.5930000  
C 12.6990000   20.3060000   21.8110000  
C 11.7850000   21.3470000   21.9340000  
C 11.9280000   22.2620000   22.9900000  
C 13.0560000   22.1860000   23.8640000  
C 14.0340000   21.1610000   23.6620000  
C 12.2990000   19.5760000   20.6490000  
C 11.1230000   20.1440000   20.1590000  
N 10.7630000   21.2420000   21.0210000  
O 10.8680000   18.6490000   18.3940000  
C 10.3280000   19.7200000   18.9720000  
O  9.2430000   20.2070000   18.5330000  
O 13.0280000   22.9520000   25.0530000  
O 15.0040000   20.8850000   24.6000000  
H 12.6990000   18.7180000   20.1470000  
H 11.7720000   18.6250000   18.7790000  
H  9.8660000   21.7780000   20.8180000  
H 13.5200000   22.5680000   25.7450000  
H 15.5460000   20.1720000   24.3360000  
H 11.2650000   23.0330000   23.0600000  
