76
110 
C 11.5600000   14.5240000   16.9520000  
C 10.4510000   14.6400000   17.8910000  
C 10.7080000   14.9110000   19.2400000  
C 11.9640000   15.1690000   19.7400000  
C 13.1260000   15.0950000   18.9820000  
C 13.0570000   14.8180000   17.5530000  
C  9.8340000   15.0330000   20.3920000  
C 10.5920000   15.3070000   21.5540000  
N 11.8680000   15.4730000   21.0920000  
O  8.8450000   15.0200000   23.1360000  
C 10.1410000   15.1760000   22.9620000  
O 10.9470000   15.2370000   23.8970000  
O 14.0200000   14.7940000   16.8100000  
O 11.3340000   14.2070000   15.8010000  
H  9.4780000   14.4130000   17.4730000  
H  8.7630000   14.9410000   20.2460000  
H  8.5640000   14.8880000   22.1770000  
H 12.6180000   15.6570000   21.7230000  
C 14.3680000   15.4150000   19.6250000  
C 15.3060000   14.4410000   20.0790000  
C 16.3790000   14.8060000   20.8160000  
C 16.7050000   16.1250000   21.1020000  
C 15.8600000   17.1080000   20.5650000  
C 14.6360000   16.7740000   19.9290000  
C 15.3630000   13.0190000   19.9650000  
C 16.5030000   12.5890000   20.6570000  
N 17.1670000   13.7710000   21.1090000  
O 16.1990000   10.2350000   20.2040000  
C 17.0410000   11.1800000   20.7040000  
O 18.1560000   10.8710000   21.1450000  
O 16.1250000   18.4340000   20.7700000  
O 13.7860000   17.8050000   19.4400000  
H 14.6870000   12.4390000   19.3320000  
H 15.3530000   10.5920000   19.9730000  
H 18.0430000   13.8400000   21.5900000  
H 17.0950000   18.5670000   20.8080000  
H 14.1800000   18.6590000   19.7060000  
C 17.9520000   16.5680000   21.6970000  
C 19.0130000   17.3050000   21.0040000  
C 20.1010000   17.7800000   21.6380000  
C 20.3880000   17.4810000   22.9880000  
C 19.4090000   16.7420000   23.6670000  
C 18.1710000   16.3420000   23.0770000  
C 19.1180000   17.8470000   19.5990000  
C 20.2950000   18.5920000   19.5980000  
N 20.9860000   18.3730000   20.7460000  
O 20.0150000   19.6640000   17.4460000  
C 20.6930000   19.6080000   18.6000000  
O 21.6840000   20.2600000   18.6840000  
O 19.5670000   16.3810000   24.9640000  
O 17.2550000   15.7120000   23.7820000  
H 18.4100000   17.9880000   18.7580000  
H 19.4440000   18.8820000   17.4130000  
H 21.8070000   19.0080000   21.0360000  
H 20.3830000   16.6950000   25.2550000  
H 16.4230000   15.6340000   23.2180000  
C 21.6600000   17.7900000   23.6910000  
C 21.6140000   18.5690000   24.8720000  
C 22.7320000   18.7530000   25.6390000  
C 24.0060000   18.2430000   25.3180000  
C 24.1270000   17.5060000   24.1250000  
C 22.9880000   17.3490000   23.3100000  
C 20.5100000   19.2190000   25.4950000  
C 20.9060000   19.5940000   26.7580000  
N 22.3240000   19.2780000   26.8340000  
O 18.8410000   20.5230000   27.3940000  
C 20.0830000   20.2560000   27.7710000  
O 20.5830000   20.6410000   28.8380000  
O 25.3500000   16.8780000   23.9000000  
O 23.0580000   16.4650000   22.2790000  
H 19.5860000   19.4960000   24.9430000  
H 18.8680000   20.3110000   26.4550000  
H 22.9520000   19.6070000   27.5540000  
H 25.3500000   16.3850000   23.0120000  
H 22.3330000   16.3110000   21.7100000  
H 24.8550000   18.3810000   25.9300000  
