76
110 
C 19.1360000    9.3140000   18.9190000  
C 20.4990000    9.3980000   19.5090000  
C 20.9280000   10.5690000   20.1320000  
C 20.2070000   11.7810000   20.2560000  
C 18.8810000   11.8290000   19.8640000  
C 18.2500000   10.6340000   19.2060000  
C 22.1180000   10.8170000   20.8020000  
C 22.0320000   12.0610000   21.4320000  
N 20.8600000   12.7140000   20.9930000  
O 24.2200000   12.2080000   22.5290000  
C 23.0180000   12.8110000   22.2070000  
O 22.7680000   13.9220000   22.6450000  
O 17.0070000   10.6340000   18.9310000  
O 18.7190000    8.3530000   18.3060000  
H 21.1650000    8.5650000   19.3430000  
H 22.9330000   10.0490000   20.8690000  
H 24.0850000   11.2850000   22.1310000  
H 20.5430000   13.6410000   21.2280000  
C 18.2780000   13.0430000   20.3150000  
C 18.1280000   14.1440000   19.4670000  
C 17.6290000   15.3340000   19.8880000  
C 17.3980000   15.6650000   21.2300000  
C 17.3870000   14.5240000   22.0980000  
C 17.7970000   13.2560000   21.6450000  
C 18.4860000   14.3660000   18.0310000  
C 18.3120000   15.7560000   17.7870000  
N 17.7630000   16.3400000   18.9480000  
O 19.0310000   15.7150000   15.5420000  
C 18.5490000   16.4500000   16.5020000  
O 18.2010000   17.6080000   16.3550000  
O 16.9590000   14.6720000   23.3790000  
O 17.7420000   12.1740000   22.4890000  
H 18.7540000   13.5340000   17.3500000  
H 19.2560000   14.8270000   15.9090000  
H 17.3650000   17.2590000   18.9800000  
H 16.7410000   15.6150000   23.3970000  
H 17.2140000   12.4030000   23.2810000  
C 16.8210000   16.9270000   21.6560000  
C 15.4430000   17.1770000   21.8340000  
C 14.9520000   18.4130000   22.3260000  
C 15.7940000   19.5110000   22.5070000  
C 17.1910000   19.3140000   22.2590000  
C 17.6750000   18.0110000   21.9030000  
C 14.3170000   16.3240000   21.7520000  
C 13.2210000   17.1280000   22.2370000  
N 13.6260000   18.4670000   22.5280000  
O 11.4920000   15.5420000   21.8750000  
C 11.8480000   16.6960000   22.4360000  
O 11.0790000   17.2490000   23.1940000  
O 18.0840000   20.3680000   22.3450000  
O 19.0520000   17.8390000   21.7560000  
H 14.2560000   15.3210000   21.3730000  
H 12.2960000   15.1370000   21.4570000  
H 13.0640000   19.0990000   22.9880000  
H 17.6430000   21.0450000   22.8010000  
H 19.5600000   18.6250000   22.0980000  
C 15.3020000   20.8430000   22.9320000  
C 15.5980000   21.2630000   24.2700000  
C 15.2940000   22.5600000   24.7310000  
C 14.6910000   23.4510000   23.8980000  
C 14.3540000   23.0850000   22.5580000  
C 14.7230000   21.7720000   22.0930000  
C 16.1310000   20.6070000   25.4320000  
C 16.1050000   21.4650000   26.5300000  
N 15.6750000   22.6780000   26.0860000  
O 16.6900000   19.7010000   27.9960000  
C 16.4380000   21.0180000   27.9220000  
O 16.3590000   21.7670000   28.8940000  
O 13.8780000   24.0130000   21.7100000  
O 14.3360000   21.4500000   20.8500000  
H 16.3570000   19.5220000   25.5450000  
H 16.9550000   19.4380000   27.1060000  
H 15.4790000   23.4420000   26.6980000  
H 13.8840000   23.5740000   20.7920000  
H 14.5900000   20.4750000   20.7520000  
H 14.4910000   24.4440000   24.3560000  
