76
110 
C 16.2320000    9.6250000   18.2050000  
C 17.4710000    9.6790000   17.4130000  
C 18.4400000   10.5800000   17.7390000  
C 18.3620000   11.5780000   18.7170000  
C 17.1610000   11.7270000   19.4380000  
C 16.0260000   10.8110000   19.2370000  
C 19.7290000   10.7360000   17.1470000  
C 20.3800000   11.7780000   17.8570000  
N 19.4980000   12.2850000   18.7660000  
O 22.3800000   11.8600000   16.3920000  
C 21.6940000   12.4500000   17.4540000  
O 22.0170000   13.4920000   18.0000000  
O 14.9970000   10.8760000   19.8590000  
O 15.3970000    8.7420000   18.0950000  
H 17.6440000    8.8390000   16.7350000  
H 20.0260000   10.2110000   16.2230000  
H 21.8540000   11.0760000   16.1380000  
H 19.7050000   13.1230000   19.3020000  
C 17.2110000   13.0190000   20.1730000  
C 16.9320000   14.2750000   19.4960000  
C 16.9560000   15.4400000   20.1610000  
C 17.3980000   15.5790000   21.5190000  
C 17.6890000   14.4070000   22.2200000  
C 17.6280000   13.1350000   21.5780000  
C 16.7550000   14.5370000   18.1640000  
C 16.6380000   15.9100000   18.0410000  
N 16.7760000   16.4930000   19.3230000  
O 16.3500000   16.0330000   15.6640000  
C 16.3020000   16.6830000   16.8270000  
O 16.0090000   17.8820000   16.8600000  
O 18.0170000   14.4540000   23.5710000  
O 17.8490000   11.9780000   22.2390000  
H 16.5390000   13.8910000   17.3360000  
H 16.3020000   15.1860000   16.0650000  
H 16.5330000   17.4430000   19.5640000  
H 18.1320000   15.4090000   23.7950000  
H 17.8910000   12.1270000   23.2090000  
C 17.3190000   16.8940000   22.1890000  
C 16.3020000   17.0580000   23.2210000  
C 15.9900000   18.2400000   23.7200000  
C 16.6950000   19.4320000   23.4080000  
C 17.7840000   19.2900000   22.5100000  
C 18.0900000   18.0190000   21.8800000  
C 15.3050000   16.1720000   23.8050000  
C 14.5550000   16.8930000   24.7170000  
N 14.9580000   18.2260000   24.6460000  
O 13.3470000   15.1060000   25.5930000  
C 13.4610000   16.4160000   25.5620000  
O 12.7600000   17.1990000   26.1430000  
O 18.6350000   20.3960000   22.3010000  
O 19.0850000   17.9210000   21.0130000  
H 15.1800000   15.1190000   23.5850000  
H 14.0560000   14.7440000   25.0220000  
H 14.4420000   19.0300000   25.0630000  
H 18.1850000   21.1420000   22.7910000  
H 19.5510000   18.7290000   20.8960000  
C 16.4140000   20.7680000   24.0230000  
C 17.4150000   21.3850000   24.7950000  
C 17.1740000   22.6280000   25.4510000  
C 16.0030000   23.4350000   25.2920000  
C 14.9710000   22.8050000   24.5880000  
C 15.1290000   21.4860000   23.9320000  
C 18.7350000   20.9420000   25.3010000  
C 19.1790000   21.8520000   26.2050000  
N 18.3010000   22.9880000   26.2120000  
O 21.0460000   20.5950000   26.7850000  
C 20.3790000   21.7360000   26.9720000  
O 20.7400000   22.5310000   27.8500000  
O 13.7010000   23.4130000   24.6100000  
O 14.0920000   20.8420000   23.3160000  
H 19.2170000   20.0050000   25.0930000  
H 20.5690000   20.1770000   26.0370000  
H 18.4220000   23.8000000   26.7620000  
H 13.1480000   23.0500000   23.9690000  
H 14.3180000   20.0230000   22.9650000  
H 15.8450000   24.3880000   25.7950000  
