76
110 
C 22.4990000   12.2940000   25.4680000  
C 22.7220000   13.0650000   26.6410000  
C 21.9150000   14.1190000   26.8590000  
C 20.8940000   14.5400000   26.0320000  
C 20.6590000   13.9060000   24.8610000  
C 21.4300000   12.7210000   24.4120000  
C 22.0220000   15.1860000   27.8980000  
C 21.0450000   16.1610000   27.6170000  
N 20.3430000   15.6930000   26.5220000  
O 21.6630000   17.6790000   29.2970000  
C 20.8840000   17.4930000   28.2130000  
O 20.1210000   18.3950000   27.9390000  
O 21.1860000   12.1840000   23.3720000  
O 23.1630000   11.2540000   25.2880000  
H 23.4610000   12.8010000   27.3700000  
H 22.7770000   15.2630000   28.6580000  
H 22.1340000   16.8290000   29.5660000  
H 19.5400000   16.1380000   26.0260000  
C 19.6420000   14.4840000   23.9770000  
C 19.9790000   15.3180000   22.9180000  
C 19.0580000   15.9760000   22.1200000  
C 17.6700000   15.7720000   22.2760000  
C 17.2850000   14.9240000   23.3480000  
C 18.2480000   14.3340000   24.2060000  
C 21.3180000   15.7670000   22.4270000  
C 21.0610000   16.6130000   21.3640000  
N 19.6960000   16.6450000   21.1000000  
O 23.3510000   16.9320000   20.9670000  
C 22.1100000   17.3060000   20.5790000  
O 21.8560000   17.9950000   19.6400000  
O 15.9680000   14.8330000   23.5520000  
O 17.7800000   13.6070000   25.2380000  
H 22.2850000   15.3740000   22.7510000  
H 23.2950000   16.1800000   21.5630000  
H 19.2290000   16.9550000   20.2980000  
H 15.6230000   15.1830000   22.7190000  
H 16.9320000   13.1180000   25.0380000  
C 16.7570000   16.5960000   21.4160000  
C 16.0450000   16.0150000   20.3670000  
C 15.2120000   16.6890000   19.5320000  
C 15.1280000   18.1090000   19.6120000  
C 15.8900000   18.7590000   20.5640000  
C 16.6590000   17.9780000   21.5310000  
C 15.9050000   14.6240000   19.9070000  
C 14.9050000   14.6080000   18.8990000  
N 14.6420000   15.9120000   18.5650000  
O 14.8200000   12.2540000   18.5530000  
C 14.4140000   13.4520000   18.0950000  
O 13.6080000   13.4190000   17.2390000  
O 16.0330000   20.1170000   20.5670000  
O 17.3330000   18.6020000   22.4850000  
H 16.3750000   13.7590000   20.3590000  
H 15.2990000   12.4090000   19.3460000  
H 14.1060000   16.2400000   17.7970000  
H 15.3510000   20.3050000   20.0210000  
H 17.3070000   19.6180000   22.3880000  
C 14.3290000   18.9200000   18.6440000  
C 12.9310000   18.9430000   18.7170000  
C 12.2120000   19.5520000   17.7560000  
C 12.8480000   20.3790000   16.7650000  
C 14.2430000   20.2910000   16.6280000  
C 15.0070000   19.5930000   17.5310000  
C 12.0390000   18.2770000   19.5740000  
C 10.7220000   18.5720000   19.1310000  
N 10.8520000   19.3360000   17.9420000  
O  9.8010000   17.5890000   21.0190000  
C  9.5120000   18.1730000   19.8530000  
O  8.4030000   18.3930000   19.3230000  
O 14.8570000   20.9990000   15.6670000  
O 16.3710000   19.6770000   17.5150000  
H 12.3550000   17.6760000   20.3940000  
H 10.7670000   17.7180000   21.0540000  
H 10.1430000   19.6860000   17.2920000  
H 15.7930000   20.9330000   15.6550000  
H 16.7650000   18.9800000   18.1420000  
H 12.2400000   20.9710000   16.0890000  
