76
110 
C 22.1240000   11.9340000   25.6200000  
C 23.4210000   12.6330000   25.4100000  
C 23.3780000   13.8180000   24.6460000  
C 22.2560000   14.5020000   24.2820000  
C 21.0250000   13.9480000   24.3810000  
C 20.8380000   12.5950000   24.9910000  
C 24.4260000   14.5710000   24.0360000  
C 23.9620000   15.6200000   23.2860000  
N 22.6200000   15.6120000   23.5650000  
O 25.9840000   16.2230000   22.3520000  
C 24.7310000   16.6680000   22.5970000  
O 24.2710000   17.7780000   22.2750000  
O 19.7820000   11.9280000   25.0110000  
O 22.1090000   10.8280000   26.1790000  
H 24.3150000   11.9960000   25.6170000  
H 25.4880000   14.3180000   24.1540000  
H 26.0490000   15.2980000   22.5320000  
H 21.9210000   16.2610000   23.1660000  
C 19.8900000   14.6620000   23.8060000  
C 19.2520000   14.1120000   22.6650000  
C 18.2830000   14.7960000   22.0060000  
C 17.7590000   16.0710000   22.3670000  
C 18.4160000   16.6440000   23.4690000  
C 19.4320000   15.9180000   24.2100000  
C 19.4970000   13.0060000   21.7660000  
C 18.6030000   13.0410000   20.7040000  
N 17.7890000   14.1130000   20.9160000  
O 19.6200000   11.1390000   19.5910000  
C 18.6150000   11.9900000   19.5940000  
O 17.7490000   11.8870000   18.7450000  
O 18.1680000   17.9130000   23.8360000  
O 20.1270000   16.5910000   25.1760000  
H 20.2570000   12.2510000   21.9230000  
H 20.2260000   11.5640000   20.1830000  
H 16.9970000   14.3730000   20.3240000  
H 17.5220000   18.3640000   23.1850000  
H 19.6210000   17.4070000   25.4050000  
C 16.6600000   16.6790000   21.6330000  
C 15.4400000   17.0870000   22.2420000  
C 14.3930000   17.6520000   21.5680000  
C 14.4230000   17.7620000   20.1650000  
C 15.6530000   17.5520000   19.5370000  
C 16.8340000   17.0540000   20.2670000  
C 14.9660000   16.9070000   23.6120000  
C 13.6060000   17.2360000   23.6300000  
N 13.2710000   17.7120000   22.3030000  
O 13.2860000   16.4950000   25.8610000  
C 12.7230000   16.9730000   24.7400000  
O 11.5600000   17.3470000   24.7970000  
O 15.6460000   17.6590000   18.1960000  
O 17.9800000   16.7330000   19.5360000  
H 15.5760000   16.4320000   24.3850000  
H 14.1440000   16.0410000   25.5540000  
H 12.3740000   18.0360000   21.9480000  
H 14.7160000   17.8200000   17.8870000  
H 18.7020000   16.5730000   20.1860000  
C 13.1360000   18.2260000   19.4300000  
C 13.0850000   19.5070000   18.8850000  
C 11.9610000   20.0650000   18.3600000  
C 10.7350000   19.3970000   18.3360000  
C 10.7970000   18.0780000   18.8350000  
C 11.9380000   17.4830000   19.3900000  
C 14.0870000   20.5630000   18.8890000  
C 13.4640000   21.7580000   18.4670000  
N 12.2350000   21.3380000   17.9680000  
O 15.4600000   22.9140000   18.5200000  
C 14.1490000   22.9680000   18.2280000  
O 13.5460000   23.9340000   17.8590000  
O  9.6150000   17.4310000   19.0700000  
O 11.9530000   16.2890000   20.0920000  
H 15.0750000   20.3890000   19.3660000  
H 15.5780000   22.0090000   18.7670000  
H 11.6630000   21.8260000   17.3090000  
H  9.7700000   16.4740000   18.9200000  
H 12.8730000   16.0770000   20.3390000  
H  9.7620000   19.8290000   17.9670000  
