76
110 
C 21.3520000   14.9580000   27.7860000  
C 20.3460000   15.1480000   28.8970000  
C 19.1620000   15.8240000   28.6740000  
C 18.7520000   16.1740000   27.3920000  
C 19.4440000   15.8220000   26.2960000  
C 20.8040000   15.3250000   26.3480000  
C 17.9980000   15.7680000   29.5060000  
C 16.9080000   16.0790000   28.7160000  
N 17.3680000   16.2970000   27.4160000  
O 15.1400000   15.7110000   30.2850000  
C 15.4430000   16.0420000   29.0520000  
O 14.5920000   16.3360000   28.1980000  
O 21.4700000   15.1660000   25.3200000  
O 22.4540000   14.5900000   28.0130000  
H 20.5830000   14.8540000   29.8820000  
H 17.9910000   15.4390000   30.5590000  
H 16.0500000   15.5220000   30.7410000  
H 16.8440000   16.2990000   26.5380000  
C 18.8540000   16.1620000   24.9940000  
C 19.1790000   17.3690000   24.3130000  
C 18.7290000   17.6430000   23.0710000  
C 17.6870000   16.8900000   22.4400000  
C 17.2220000   15.7280000   23.2050000  
C 17.8240000   15.3770000   24.4240000  
C 20.1200000   18.3790000   24.6110000  
C 19.9690000   19.2960000   23.5890000  
N 19.1690000   18.8520000   22.5470000  
O 21.5900000   20.7760000   24.5710000  
C 20.7760000   20.5570000   23.5260000  
O 20.7910000   21.3320000   22.6170000  
O 16.2480000   14.8940000   22.7060000  
O 17.4460000   14.2110000   25.0670000  
H 20.7840000   18.3080000   25.5000000  
H 21.3630000   20.1540000   25.2580000  
H 19.1500000   19.2490000   21.6080000  
H 15.9960000   15.3600000   21.8670000  
H 16.7660000   13.7820000   24.4880000  
C 17.2210000   17.1730000   21.0780000  
C 17.4750000   16.1690000   20.0760000  
C 16.8870000   16.3970000   18.8720000  
C 16.0270000   17.4400000   18.5120000  
C 15.7380000   18.3740000   19.5570000  
C 16.2540000   18.2250000   20.8240000  
C 18.2780000   14.9710000   19.9690000  
C 18.1230000   14.5080000   18.6780000  
N 17.2510000   15.3710000   17.9860000  
O 19.5110000   12.5800000   18.8690000  
C 18.7580000   13.2790000   18.0510000  
O 18.5630000   12.9500000   16.9580000  
O 14.8920000   19.3220000   19.2900000  
O 15.8530000   19.0590000   21.7950000  
H 18.7990000   14.4110000   20.6960000  
H 19.5040000   12.9940000   19.7510000  
H 16.7420000   15.0850000   17.1590000  
H 14.7810000   19.2280000   18.3270000  
H 15.0360000   19.5100000   21.3840000  
C 15.4340000   17.5320000   17.1470000  
C 14.6220000   16.5280000   16.5810000  
C 14.2430000   16.5450000   15.2410000  
C 14.4860000   17.6720000   14.3840000  
C 15.3310000   18.6240000   14.9460000  
C 15.8370000   18.5570000   16.2450000  
C 14.1040000   15.3140000   17.1200000  
C 13.3220000   14.7210000   16.1760000  
N 13.4970000   15.3900000   14.9580000  
O 12.5860000   13.0090000   17.7480000  
C 12.4680000   13.5490000   16.5020000  
O 11.5940000   13.0790000   15.7520000  
O 15.7090000   19.6630000   14.1610000  
O 16.5930000   19.5750000   16.7510000  
H 14.3270000   14.9020000   18.0960000  
H 13.3110000   13.5200000   18.1260000  
H 12.9000000   15.2690000   14.1110000  
H 16.3150000   20.1820000   14.8150000  
H 16.6770000   19.3420000   17.6550000  
H 14.1090000   17.7280000   13.3500000  
