76
110 
C 17.5800000   11.1330000   16.4340000  
C 16.2320000   11.0740000   15.7980000  
C 15.2550000   11.9570000   16.2340000  
C 15.4230000   12.8650000   17.2710000  
C 16.6420000   12.9710000   18.0170000  
C 17.8250000   12.0690000   17.6910000  
C 13.8890000   12.1580000   15.8290000  
C 13.3510000   13.2330000   16.5150000  
N 14.2380000   13.4750000   17.4710000  
O 11.0870000   13.5010000   15.5710000  
C 12.0480000   13.9900000   16.3950000  
O 11.8130000   14.9850000   17.0820000  
O 18.9110000   12.1130000   18.2960000  
O 18.4650000   10.3590000   16.1330000  
H 16.2160000   10.5280000   14.9370000  
H 13.4700000   11.5840000   15.0800000  
H 11.4960000   12.7540000   15.0420000  
H 14.0380000   14.0170000   18.2830000  
C 16.6500000   13.9600000   19.0790000  
C 16.8140000   13.5760000   20.4050000  
C 16.9890000   14.5210000   21.3810000  
C 17.0390000   15.8590000   21.1510000  
C 16.7200000   16.2740000   19.8040000  
C 16.6070000   15.3230000   18.7710000  
C 16.9480000   12.3490000   21.0940000  
C 17.0030000   12.5840000   22.4950000  
N 17.0430000   13.9580000   22.6600000  
O 17.0230000   10.3190000   23.1480000  
C 17.0620000   11.5870000   23.5670000  
O 17.2510000   11.8930000   24.7200000  
O 16.7200000   17.5950000   19.4320000  
O 16.3090000   15.7980000   17.5210000  
H 17.1370000   11.3710000   20.5960000  
H 16.8080000   10.4130000   22.1650000  
H 16.7470000   14.3680000   23.4980000  
H 17.2090000   17.9930000   20.2460000  
H 16.2590000   16.7240000   17.5090000  
C 17.3070000   16.8300000   22.2630000  
C 18.5900000   17.3050000   22.3880000  
C 18.8690000   18.1490000   23.3990000  
C 17.8990000   18.6880000   24.2730000  
C 16.6050000   18.2260000   24.1770000  
C 16.2990000   17.2280000   23.1730000  
C 19.7520000   17.2100000   21.6040000  
C 20.7280000   17.9680000   22.2810000  
N 20.1640000   18.6220000   23.4100000  
O 22.3240000   17.4570000   20.6510000  
C 22.1570000   18.0980000   21.7920000  
O 23.0510000   18.7260000   22.3210000  
O 15.6020000   18.6190000   25.0980000  
O 14.9910000   16.7180000   23.1600000  
H 19.9520000   16.4210000   20.8920000  
H 21.4310000   17.4250000   20.1840000  
H 20.5240000   19.4780000   23.8330000  
H 15.8980000   19.4410000   25.6570000  
H 14.9850000   15.9100000   22.6690000  
C 18.2510000   19.4890000   25.4840000  
C 17.9980000   20.8430000   25.6350000  
C 18.2620000   21.5380000   26.7710000  
C 18.9150000   21.0560000   27.8890000  
C 19.2430000   19.7130000   27.7960000  
C 18.9850000   18.9660000   26.6100000  
C 17.2960000   21.7400000   24.7510000  
C 17.2530000   22.9780000   25.3900000  
N 17.9170000   22.8320000   26.6210000  
O 16.1370000   24.0240000   23.6860000  
C 16.6940000   24.2540000   24.8150000  
O 16.8240000   25.3330000   25.3510000  
O 20.0350000   19.1670000   28.7470000  
O 19.3810000   17.6320000   26.5990000  
H 17.1630000   21.5680000   23.6670000  
H 16.2830000   23.0930000   23.5290000  
H 18.1450000   23.5480000   27.3300000  
H 20.0520000   18.2010000   28.6900000  
H 19.5320000   17.3530000   25.6350000  
H 19.2300000   21.7240000   28.6840000  
