76
110 
C 18.1490000   17.5230000   29.3670000  
C 16.7400000   17.4760000   29.7260000  
C 15.8360000   17.1030000   28.7590000  
C 16.1130000   16.9240000   27.4640000  
C 17.3760000   17.0080000   26.9250000  
C 18.5030000   17.2990000   27.8500000  
C 14.4120000   17.2160000   28.8330000  
C 13.8830000   17.0410000   27.5710000  
N 14.9990000   16.8000000   26.7180000  
O 11.5510000   16.8380000   28.2250000  
C 12.4400000   17.0450000   27.2370000  
O 12.0600000   17.1280000   26.0580000  
O 19.6730000   17.5010000   27.4730000  
O 18.9650000   17.8360000   30.1930000  
H 16.4210000   17.7800000   30.6920000  
H 14.0270000   17.2760000   29.8140000  
H 12.0790000   16.6500000   28.8980000  
H 14.9590000   16.5760000   25.7440000  
C 17.4830000   16.7320000   25.5070000  
C 17.2050000   17.7420000   24.5870000  
C 17.0400000   17.5000000   23.2820000  
C 17.1350000   16.2160000   22.6770000  
C 17.4490000   15.2160000   23.6390000  
C 17.5980000   15.4760000   24.9900000  
C 16.9140000   19.1470000   24.8330000  
C 16.6490000   19.7000000   23.5860000  
N 16.7080000   18.7080000   22.5630000  
O 16.1740000   21.8990000   24.5080000  
C 16.2930000   21.1320000   23.4120000  
O 16.0780000   21.5660000   22.2910000  
O 17.7780000   14.0050000   23.1450000  
O 17.7160000   14.4420000   25.8980000  
H 16.7770000   19.6350000   25.8290000  
H 16.5330000   21.2860000   25.1410000  
H 16.4300000   18.9040000   21.6040000  
H 17.3530000   13.9670000   22.2480000  
H 18.0790000   13.7120000   25.3020000  
C 17.0860000   16.0950000   21.1730000  
C 18.1890000   16.3760000   20.3960000  
C 18.1430000   16.2230000   19.0130000  
C 16.9590000   15.8880000   18.2860000  
C 15.8090000   15.6720000   19.0770000  
C 15.8860000   15.7500000   20.4690000  
C 19.6060000   16.5930000   20.6710000  
C 20.2700000   16.4140000   19.4240000  
N 19.3330000   16.2910000   18.3660000  
O 22.5940000   16.5140000   20.2880000  
C 21.7710000   16.4160000   19.1820000  
O 22.2420000   16.3680000   18.0970000  
O 14.5730000   15.4100000   18.5620000  
O 14.7610000   15.5370000   21.2010000  
H 20.1170000   17.0300000   21.5210000  
H 21.9980000   16.4480000   21.0640000  
H 19.4370000   16.3470000   17.3970000  
H 14.6220000   15.4140000   17.6110000  
H 14.1090000   15.4320000   20.5360000  
C 16.9480000   15.8880000   16.8120000  
C 17.7390000   14.8960000   16.1550000  
C 17.9400000   14.9600000   14.7860000  
C 17.2470000   15.8710000   14.0270000  
C 16.4740000   16.8720000   14.6830000  
C 16.3360000   16.8990000   16.0570000  
C 18.4930000   13.7270000   16.6560000  
C 19.0750000   13.1370000   15.5350000  
N 18.6310000   13.7910000   14.3760000  
O 19.9000000   11.3050000   16.6970000  
C 19.8340000   11.9500000   15.5260000  
O 20.3470000   11.4090000   14.6150000  
O 15.8340000   17.8420000   14.0420000  
O 15.7600000   17.9020000   16.7390000  
H 18.4610000   13.2870000   17.6280000  
H 19.3400000   11.8700000   17.1970000  
H 19.0080000   13.7290000   13.4410000  
H 15.7080000   18.6080000   14.5590000  
H 16.1470000   17.8920000   17.7130000  
H 17.2580000   15.7650000   12.9580000  
