76
110 
C  9.9710000   18.6070000   21.7860000  
C  9.4280000   17.5910000   22.6390000  
C 10.1380000   16.4610000   22.9090000  
C 11.4370000   16.2520000   22.4820000  
C 12.2250000   17.2870000   21.9450000  
C 11.5540000   18.4670000   21.4230000  
C  9.7610000   15.3100000   23.7270000  
C 10.9450000   14.5230000   23.8370000  
N 11.9110000   15.1800000   23.0930000  
O 10.1510000   13.1950000   25.5390000  
C 11.2280000   13.5050000   24.8350000  
O 12.3390000   13.0200000   25.0280000  
O 12.0620000   19.4960000   20.9470000  
O  9.2970000   19.5520000   21.3530000  
H  8.4870000   17.9130000   23.0650000  
H  8.7810000   15.1290000   24.1940000  
H  9.4540000   13.8210000   25.1020000  
H 12.9080000   14.9400000   23.1440000  
C 13.6310000   17.1040000   21.8370000  
C 14.1640000   16.1240000   21.0400000  
C 15.5340000   15.9410000   20.9940000  
C 16.4760000   16.8020000   21.5360000  
C 15.9320000   17.8320000   22.3290000  
C 14.5180000   17.9550000   22.5070000  
C 13.6070000   15.0720000   20.2630000  
C 14.6220000   14.3540000   19.6230000  
N 15.8570000   14.9270000   20.1090000  
O 13.2750000   13.0070000   18.2690000  
C 14.5340000   13.3150000   18.6050000  
O 15.4850000   12.7610000   18.0340000  
O 16.7560000   18.8530000   22.7830000  
O 13.9860000   19.0090000   23.1830000  
H 12.5440000   14.9080000   20.1350000  
H 12.7700000   13.6160000   18.8190000  
H 16.7520000   14.7680000   19.6600000  
H 17.6580000   18.6560000   22.5730000  
H 14.4690000   19.8190000   23.0390000  
C 17.9320000   16.5480000   21.3840000  
C 18.7760000   17.4010000   20.5990000  
C 20.1230000   17.1980000   20.5870000  
C 20.7140000   16.0790000   21.1960000  
C 19.8740000   15.1210000   21.7930000  
C 18.5090000   15.3900000   22.0130000  
C 18.4560000   18.6610000   19.8570000  
C 19.7280000   19.2080000   19.6220000  
N 20.7860000   18.3170000   20.0570000  
O 18.9320000   21.1810000   18.3870000  
C 19.9840000   20.5200000   18.8890000  
O 21.1390000   20.8880000   18.7810000  
O 20.3820000   13.8720000   22.0880000  
O 17.6970000   14.5290000   22.6650000  
H 17.5580000   19.0440000   19.5240000  
H 18.1740000   20.6740000   18.6630000  
H 21.7380000   18.6350000   20.2860000  
H 21.3570000   14.0970000   22.2070000  
H 16.8090000   14.8640000   22.8030000  
C 22.2350000   15.8930000   21.1760000  
C 22.9760000   16.2570000   22.3260000  
C 24.3480000   16.1060000   22.4100000  
C 25.0920000   15.5810000   21.3730000  
C 24.3700000   15.2510000   20.1910000  
C 22.9920000   15.4500000   20.0490000  
C 22.5150000   16.6800000   23.6000000  
C 23.6360000   16.8590000   24.3720000  
N 24.7500000   16.5840000   23.6530000  
O 22.5380000   17.2070000   26.4780000  
C 23.7680000   17.1900000   25.8430000  
O 24.8200000   17.3070000   26.4600000  
O 24.9590000   14.5020000   19.2360000  
O 22.2560000   15.1250000   18.8780000  
H 21.4980000   16.8370000   23.9350000  
H 21.8780000   16.8050000   25.8880000  
H 25.6800000   16.6540000   24.0460000  
H 24.3570000   14.4610000   18.4720000  
H 21.2880000   15.3620000   19.0400000  
H 26.1570000   15.4690000   21.4430000  
