76
110 
C 18.2570000   14.8950000   29.1710000  
C 18.6640000   16.2570000   29.6530000  
C 18.7650000   17.2870000   28.7480000  
C 18.3840000   17.1200000   27.3930000  
C 18.0790000   15.9100000   26.7730000  
C 18.0450000   14.7400000   27.6150000  
C 19.0980000   18.6320000   28.8810000  
C 18.9430000   19.2910000   27.6560000  
N 18.4850000   18.3010000   26.7370000  
O 19.4350000   21.4500000   28.4890000  
C 18.9930000   20.7290000   27.4270000  
O 18.6490000   21.2780000   26.3700000  
O 17.9690000   13.6560000   27.1600000  
O 18.1280000   13.9090000   29.9170000  
H 18.9160000   16.3340000   30.7380000  
H 19.3500000   19.0590000   29.8480000  
H 19.5120000   20.7810000   29.2340000  
H 18.2720000   18.4330000   25.7410000  
C 17.8270000   15.9560000   25.4170000  
C 18.8470000   15.8310000   24.4630000  
C 18.5550000   15.8360000   23.1260000  
C 17.2910000   16.0670000   22.5700000  
C 16.2700000   16.1870000   23.4840000  
C 16.5290000   16.2030000   24.8790000  
C 20.2870000   15.6260000   24.5930000  
C 20.7590000   15.4180000   23.3260000  
N 19.6950000   15.5930000   22.4420000  
O 23.0660000   15.3490000   23.9710000  
C 22.1670000   15.2170000   22.9450000  
O 22.5240000   15.0840000   21.7890000  
O 15.0090000   16.5240000   22.9820000  
O 15.4830000   16.4930000   25.7040000  
H 20.8670000   15.6480000   25.4900000  
H 22.5170000   15.4110000   24.7550000  
H 19.8010000   15.7120000   21.4330000  
H 15.0010000   16.8420000   22.0780000  
H 14.7490000   16.6890000   25.1980000  
C 17.1580000   16.2440000   21.1010000  
C 16.6110000   15.1750000   20.3980000  
C 16.4890000   15.2220000   19.0460000  
C 16.9510000   16.3260000   18.2480000  
C 17.4740000   17.4380000   18.9300000  
C 17.6480000   17.3460000   20.3620000  
C 15.8020000   14.1080000   20.8600000  
C 15.2010000   13.6460000   19.7570000  
N 15.6110000   14.2700000   18.6170000  
O 13.9740000   11.8930000   20.9970000  
C 14.2230000   12.5130000   19.7950000  
O 13.5830000   12.1770000   18.8120000  
O 17.8630000   18.5070000   18.2830000  
O 18.1530000   18.4410000   21.0670000  
H 15.7160000   13.7020000   21.8320000  
H 14.6890000   12.2230000   21.5900000  
H 15.3330000   14.0390000   17.7450000  
H 18.0730000   18.4040000   17.3360000  
H 18.3670000   18.0850000   21.9540000  
C 16.6320000   16.3390000   16.7950000  
C 15.6920000   17.2270000   16.2260000  
C 15.4550000   17.2510000   14.8920000  
C 15.9670000   16.2720000   14.0210000  
C 16.9650000   15.4410000   14.5340000  
C 17.2610000   15.4050000   15.9190000  
C 14.8560000   18.2780000   16.8910000  
C 14.0360000   18.8300000   15.8930000  
N 14.5100000   18.3280000   14.6520000  
O 12.9590000   20.4340000   17.2570000  
C 13.0010000   19.8940000   16.0560000  
O 12.3520000   20.2260000   15.0570000  
O 17.6500000   14.5950000   13.6340000  
O 18.2900000   14.5130000   16.3170000  
H 14.8540000   18.6060000   17.9380000  
H 13.6730000   20.0600000   17.6830000  
H 14.0840000   18.5240000   13.7860000  
H 18.5760000   14.4000000   14.0150000  
H 18.6980000   14.9500000   17.0840000  
H 15.7200000   16.2250000   12.9730000  
