76
110 
C 10.0930000   19.1440000   23.0960000  
C  9.6440000   17.8900000   23.7840000  
C 10.4680000   16.8490000   24.0120000  
C 11.8070000   16.8380000   23.6710000  
C 12.4150000   17.9100000   23.0820000  
C 11.5630000   19.1920000   22.7460000  
C 10.1480000   15.5260000   24.4410000  
C 11.3030000   14.7560000   24.5270000  
N 12.3330000   15.5740000   24.0150000  
O 10.2120000   12.9020000   25.5620000  
C 11.3600000   13.3700000   25.0700000  
O 12.4020000   12.7220000   25.1320000  
O 11.9770000   20.2260000   22.2100000  
O  9.2400000   20.0080000   22.6970000  
H  8.5680000   17.7310000   23.8820000  
H  9.1660000   15.2230000   24.6790000  
H  9.4980000   13.4800000   25.1240000  
H 13.3340000   15.3940000   24.0160000  
C 13.8200000   17.7130000   22.7520000  
C 14.0970000   17.0950000   21.5520000  
C 15.3630000   16.7800000   21.1960000  
C 16.5130000   17.0870000   22.0120000  
C 16.1820000   17.5700000   23.3200000  
C 14.8170000   17.8840000   23.6860000  
C 13.3000000   16.5730000   20.4150000  
C 14.1070000   15.7970000   19.6150000  
N 15.4250000   16.0370000   20.0160000  
O 12.2620000   14.7760000   18.4000000  
C 13.6050000   14.7870000   18.5460000  
O 14.3130000   13.9750000   17.8980000  
O 17.2280000   17.8610000   24.1730000  
O 14.5750000   18.4910000   24.9170000  
H 12.2300000   16.8000000   20.1950000  
H 11.9010000   15.3040000   19.0830000  
H 16.2750000   15.6870000   19.6280000  
H 18.0430000   17.6710000   23.7220000  
H 15.4130000   18.6390000   25.3870000  
C 17.8880000   16.6860000   21.6540000  
C 18.7050000   17.4920000   20.8500000  
C 20.0020000   17.1710000   20.5060000  
C 20.6630000   15.9670000   20.9070000  
C 19.8880000   15.1380000   21.7410000  
C 18.4920000   15.4280000   21.9670000  
C 18.4780000   18.8310000   20.3270000  
C 19.5330000   19.1240000   19.4520000  
N 20.4890000   18.1660000   19.6560000  
O 18.7950000   21.1290000   18.5570000  
C 19.7670000   20.2290000   18.5480000  
O 20.7300000   20.3510000   17.8280000  
O 20.4240000   13.9910000   22.3320000  
O 17.6930000   14.6290000   22.7080000  
H 17.6800000   19.4970000   20.5150000  
H 18.0580000   20.7210000   18.9980000  
H 21.4370000   18.2900000   19.3630000  
H 21.3000000   13.9020000   21.8960000  
H 17.1150000   15.2310000   23.2190000  
C 22.0280000   15.5780000   20.3580000  
C 23.0780000   15.4990000   21.2570000  
C 24.3650000   15.3090000   20.8740000  
C 24.7680000   15.1520000   19.5550000  
C 23.7360000   15.1740000   18.5820000  
C 22.3760000   15.3880000   19.0060000  
C 23.1290000   15.5550000   22.7120000  
C 24.4040000   15.2680000   23.1400000  
N 25.1430000   15.1470000   21.9440000  
O 23.8470000   15.1140000   25.4180000  
C 24.8780000   15.1370000   24.5120000  
O 26.0640000   14.8800000   24.8210000  
O 24.0300000   15.0210000   17.2500000  
O 21.3670000   15.3880000   18.0240000  
H 22.2710000   15.6060000   23.3650000  
H 23.1220000   14.9450000   24.7990000  
H 26.1480000   15.1360000   21.9760000  
H 23.2800000   14.6410000   16.7840000  
H 20.4600000   15.5330000   18.4940000  
H 25.8230000   14.9300000   19.3610000  
