76
110 
C 16.6950000   10.5930000   17.2230000  
C 15.9830000   11.0560000   16.0080000  
C 15.3690000   12.2960000   16.0700000  
C 15.5990000   13.2070000   17.1100000  
C 16.2790000   12.8850000   18.2880000  
C 16.8310000   11.5340000   18.4320000  
C 14.5280000   12.9750000   15.1080000  
C 14.3490000   14.3030000   15.5460000  
N 14.9970000   14.3610000   16.7740000  
O 12.7620000   15.0220000   13.9410000  
C 13.4720000   15.3530000   15.0140000  
O 13.3390000   16.4990000   15.4460000  
O 17.3460000   11.1320000   19.4690000  
O 17.2670000    9.5190000   17.2050000  
H 16.0520000   10.4390000   15.1380000  
H 14.1160000   12.6210000   14.1780000  
H 12.9690000   14.0220000   13.7610000  
H 15.0810000   15.2460000   17.3560000  
C 16.4360000   13.9770000   19.2780000  
C 15.5400000   14.0390000   20.2840000  
C 15.7250000   14.9180000   21.3140000  
C 16.7530000   15.8870000   21.3260000  
C 17.6110000   15.9410000   20.1740000  
C 17.4290000   14.9660000   19.1750000  
C 14.5080000   13.0980000   20.7420000  
C 14.2220000   13.4690000   22.0280000  
N 14.9380000   14.6020000   22.4260000  
O 12.5930000   11.7780000   22.1110000  
C 13.1650000   12.7390000   22.8220000  
O 12.8390000   12.9840000   23.9750000  
O 18.6750000   16.8890000   20.0810000  
O 18.3280000   15.0420000   18.1310000  
H 14.1430000   12.2310000   20.2330000  
H 12.8840000   11.9310000   21.1660000  
H 15.0120000   14.9070000   23.4030000  
H 18.6540000   17.5060000   20.8330000  
H 19.0400000   15.6200000   18.4440000  
C 16.9150000   16.7610000   22.5300000  
C 18.1400000   16.7510000   23.2150000  
C 18.5150000   17.7010000   24.1820000  
C 17.6430000   18.7510000   24.6000000  
C 16.3720000   18.8220000   23.8630000  
C 16.0180000   17.8380000   22.7990000  
C 19.3710000   15.9320000   23.0680000  
C 20.3280000   16.5110000   23.8980000  
N 19.8280000   17.5530000   24.6320000  
O 22.0020000   15.0710000   23.0930000  
C 21.7540000   16.0530000   23.9530000  
O 22.6080000   16.5880000   24.6150000  
O 15.5870000   19.8970000   24.0320000  
O 15.0420000   18.1430000   21.8800000  
H 19.4700000   15.0860000   22.3900000  
H 21.2040000   14.8580000   22.5700000  
H 20.3920000   18.1310000   25.2450000  
H 16.0780000   20.5560000   24.6370000  
H 14.6510000   19.0280000   22.0270000  
C 18.0370000   19.7290000   25.6610000  
C 19.1840000   20.5050000   25.4610000  
C 19.5350000   21.5290000   26.3010000  
C 18.9090000   21.7560000   27.5260000  
C 17.9600000   20.8710000   27.8580000  
C 17.4900000   19.8500000   26.9640000  
C 19.9220000   20.7680000   24.2620000  
C 20.8430000   21.7780000   24.5510000  
N 20.6160000   22.2330000   25.8460000  
O 21.8980000   21.9860000   22.4570000  
C 21.8260000   22.4340000   23.7020000  
O 22.5160000   23.3950000   23.9370000  
O 17.2630000   21.1340000   28.9420000  
O 16.3380000   19.1530000   27.2470000  
H 20.0170000   20.1650000   23.3790000  
H 21.1910000   21.2430000   22.4040000  
H 21.0070000   22.9860000   26.3730000  
H 16.5410000   20.4760000   28.8930000  
H 16.1570000   18.5230000   26.6120000  
H 19.1650000   22.5600000   28.2000000  
