76
110 
C 22.7660000   11.6270000   22.9840000  
C 23.2170000   11.9600000   24.3240000  
C 22.5470000   12.8330000   25.1180000  
C 21.3700000   13.4330000   24.6760000  
C 20.8550000   13.3160000   23.4270000  
C 21.5110000   12.3910000   22.4470000  
C 22.7150000   13.2600000   26.4610000  
C 21.7120000   14.0900000   26.8530000  
N 20.8180000   14.1300000   25.7150000  
O 22.3750000   14.9010000   29.0000000  
C 21.3930000   14.8180000   28.1140000  
O 20.3660000   15.3450000   28.3330000  
O 21.0710000   12.2330000   21.3340000  
O 23.3630000   10.8420000   22.2570000  
H 24.1400000   11.5370000   24.6240000  
H 23.5240000   12.9670000   27.0590000  
H 23.0240000   14.3720000   28.6020000  
H 19.9620000   14.5920000   25.5860000  
C 19.7240000   14.1800000   23.0760000  
C 20.0190000   15.5470000   22.8640000  
C 19.0380000   16.4130000   22.5700000  
C 17.7080000   16.1160000   22.5850000  
C 17.3680000   14.7190000   22.7010000  
C 18.3720000   13.7320000   22.9980000  
C 21.2570000   16.3170000   22.8250000  
C 20.9440000   17.5930000   22.4570000  
N 19.5490000   17.7050000   22.3370000  
O 23.0980000   18.5340000   22.9560000  
C 21.8300000   18.7600000   22.5110000  
O 21.4600000   19.8950000   22.1770000  
O 16.0330000   14.3250000   22.6290000  
O 18.0720000   12.4350000   23.2090000  
H 22.2720000   16.0240000   23.1970000  
H 23.0590000   17.6990000   23.3320000  
H 18.9870000   18.5390000   22.1220000  
H 15.4880000   15.1390000   22.4040000  
H 17.4160000   11.9910000   22.6560000  
C 16.6810000   17.0090000   21.8720000  
C 16.3970000   16.9890000   20.4700000  
C 15.4280000   17.7700000   19.9500000  
C 14.6150000   18.7320000   20.6190000  
C 14.8510000   18.6660000   21.9930000  
C 15.8840000   17.8820000   22.6520000  
C 17.0520000   16.3010000   19.3320000  
C 16.4470000   16.7150000   18.1570000  
N 15.4020000   17.6040000   18.5530000  
O 17.5830000   15.2960000   16.7720000  
C 16.7150000   16.2950000   16.8110000  
O 16.2440000   16.8240000   15.8130000  
O 14.1010000   19.4330000   22.8100000  
O 15.8440000   17.7670000   23.9860000  
H 17.9030000   15.5930000   19.4100000  
H 17.7620000   15.2190000   17.7030000  
H 14.7250000   18.0350000   17.8970000  
H 13.4480000   19.9030000   22.2150000  
H 15.2620000   18.3650000   24.3150000  
C 13.5280000   19.5430000   19.9000000  
C 12.4640000   18.7790000   19.3240000  
C 11.3590000   19.4950000   18.8190000  
C 11.2850000   20.8800000   18.7630000  
C 12.3310000   21.5740000   19.3630000  
C 13.4700000   20.9100000   19.9550000  
C 12.0320000   17.3750000   19.2150000  
C 10.7470000   17.3150000   18.7460000  
N 10.2820000   18.6530000   18.5030000  
O 10.6090000   15.0280000   18.9550000  
C  9.9330000   16.1400000   18.6370000  
O  8.8230000   16.0090000   18.1400000  
O 12.2300000   22.9710000   19.3310000  
O 14.4780000   21.6380000   20.4730000  
H 12.6520000   16.5710000   19.6080000  
H 11.5350000   15.3060000   19.0340000  
H  9.2870000   18.8600000   18.3180000  
H 12.9530000   23.3740000   19.8040000  
H 15.2550000   21.1440000   20.4420000  
H 10.4970000   21.4870000   18.2590000  
