76
110 
C 12.5410000   18.5440000   27.6360000  
C 13.6100000   18.9680000   28.6070000  
C 14.9450000   18.9350000   28.2370000  
C 15.3620000   18.5570000   26.9600000  
C 14.5200000   18.1620000   25.9000000  
C 13.0540000   18.1440000   26.1210000  
C 16.0920000   19.3090000   28.9720000  
C 17.1720000   19.1170000   28.1120000  
N 16.7000000   18.6300000   26.9050000  
O 18.9510000   19.7610000   29.6610000  
C 18.6250000   19.3050000   28.4030000  
O 19.5260000   19.0300000   27.6040000  
O 12.3070000   17.7570000   25.2590000  
O 11.3640000   18.4260000   27.9260000  
H 13.2500000   19.2870000   29.5860000  
H 16.0310000   19.6780000   29.9950000  
H 18.1540000   20.0290000   30.0370000  
H 17.2720000   18.4020000   26.0980000  
C 15.1620000   17.7510000   24.5770000  
C 15.0630000   16.3940000   24.1540000  
C 15.6120000   15.9030000   22.9940000  
C 16.4610000   16.7310000   22.2000000  
C 16.6930000   18.0680000   22.6810000  
C 16.0260000   18.5710000   23.7800000  
C 14.3610000   15.2340000   24.8140000  
C 14.7580000   14.1030000   24.0590000  
N 15.5960000   14.4850000   23.0290000  
O 13.8250000   12.4420000   25.5550000  
C 14.5320000   12.6740000   24.3970000  
O 14.9580000   11.7000000   23.8120000  
O 17.5860000   18.9300000   22.0450000  
O 16.1360000   19.8910000   24.1440000  
H 13.7660000   15.2280000   25.7500000  
H 13.6370000   13.3370000   25.9390000  
H 16.1050000   13.9010000   22.3220000  
H 18.1680000   18.3560000   21.5670000  
H 16.5510000   20.3860000   23.3970000  
C 17.2070000   16.1680000   21.0820000  
C 16.6160000   16.2150000   19.8170000  
C 17.3380000   15.7820000   18.7620000  
C 18.7060000   15.4080000   18.8560000  
C 19.3390000   15.4970000   20.1190000  
C 18.5490000   15.7490000   21.2470000  
C 15.3270000   16.4740000   19.2710000  
C 15.3940000   16.2690000   17.9350000  
N 16.6480000   15.7220000   17.5640000  
O 13.0870000   16.9530000   17.5140000  
C 14.2960000   16.5890000   17.0270000  
O 14.4300000   16.6810000   15.8360000  
O 20.6620000   15.1210000   20.1970000  
O 19.1350000   15.6640000   22.5060000  
H 14.4230000   16.8160000   19.8050000  
H 13.0150000   16.5390000   18.3860000  
H 16.9240000   15.5290000   16.5840000  
H 21.1100000   15.3120000   19.3340000  
H 20.0300000   15.2720000   22.3920000  
C 19.4700000   14.8090000   17.6340000  
C 20.6140000   15.4580000   17.0460000  
C 21.2430000   14.9060000   15.9330000  
C 20.8830000   13.6580000   15.4870000  
C 19.8070000   12.9540000   16.0530000  
C 19.1360000   13.5090000   17.1260000  
C 21.2810000   16.7200000   17.3480000  
C 22.3290000   16.8430000   16.3970000  
N 22.3070000   15.7130000   15.5350000  
O 23.6810000   18.3220000   17.6220000  
C 23.6350000   17.6380000   16.4030000  
O 24.4880000   17.6680000   15.5510000  
O 19.3770000   11.8280000   15.3990000  
O 18.1750000   12.7700000   17.7780000  
H 21.0140000   17.3570000   18.1810000  
H 22.9930000   17.9570000   18.1950000  
H 22.8960000   15.5780000   14.7670000  
H 18.6450000   11.4640000   15.9010000  
H 17.6100000   13.4890000   18.0870000  
H 21.3550000   13.2270000   14.6470000  
