76
110 
C 23.2040000   13.5930000   25.7350000  
C 22.8600000   13.9880000   27.1230000  
C 21.6720000   14.6550000   27.3770000  
C 20.7470000   14.9170000   26.3560000  
C 20.8220000   14.4630000   25.0610000  
C 22.0850000   13.7920000   24.6020000  
C 21.1620000   15.1490000   28.6340000  
C 19.9790000   15.7310000   28.3060000  
N 19.7220000   15.5730000   26.9470000  
O 19.4190000   16.2570000   30.5320000  
C 18.9690000   16.3160000   29.2950000  
O 17.8650000   16.7050000   28.9790000  
O 22.2390000   13.5140000   23.4050000  
O 24.2950000   13.1210000   25.5080000  
H 23.6180000   13.7190000   27.9210000  
H 21.6480000   15.0820000   29.6520000  
H 20.4050000   16.0160000   30.4410000  
H 18.8760000   15.8740000   26.3940000  
C 19.6770000   14.7800000   24.2210000  
C 19.5190000   16.0900000   23.7350000  
C 18.4720000   16.4650000   22.9120000  
C 17.5330000   15.5250000   22.4020000  
C 17.6020000   14.2150000   22.8970000  
C 18.7400000   13.8470000   23.6890000  
C 20.2020000   17.3460000   24.0870000  
C 19.5250000   18.3800000   23.3740000  
N 18.4460000   17.8030000   22.7340000  
O 20.8210000   20.3380000   24.0400000  
C 19.7590000   19.8610000   23.2950000  
O 19.0970000   20.6550000   22.6400000  
O 16.6950000   13.2360000   22.6350000  
O 18.8240000   12.5500000   24.1590000  
H 21.1420000   17.5190000   24.5590000  
H 21.3510000   19.5690000   24.1270000  
H 17.7600000   18.3870000   22.3920000  
H 15.8740000   13.7070000   22.3980000  
H 17.9330000   12.2440000   24.2430000  
C 16.4660000   16.0980000   21.5500000  
C 16.8210000   16.7630000   20.3120000  
C 15.8580000   17.3180000   19.4840000  
C 14.5090000   17.3200000   19.7510000  
C 14.1390000   16.7310000   20.9910000  
C 15.0540000   16.0870000   21.8080000  
C 18.0970000   16.9580000   19.6200000  
C 17.7400000   17.5500000   18.3840000  
N 16.4250000   17.8670000   18.3770000  
O 19.9290000   17.5320000   17.4400000  
C 18.6780000   17.9850000   17.2620000  
O 18.2850000   18.6190000   16.3080000  
O 12.8180000   16.6750000   21.3370000  
O 14.6230000   15.5500000   23.0630000  
H 19.0770000   16.6540000   19.9660000  
H 19.9490000   17.0390000   18.3140000  
H 15.9170000   18.2690000   17.6430000  
H 12.2180000   16.9810000   20.6310000  
H 13.6340000   15.5180000   22.9240000  
C 13.4320000   17.8050000   18.8190000  
C 13.2280000   17.2400000   17.5550000  
C 12.2400000   17.7000000   16.6840000  
C 11.2770000   18.6720000   17.0230000  
C 11.4810000   19.3400000   18.2510000  
C 12.5210000   18.8590000   19.1750000  
C 13.7740000   16.0610000   16.9310000  
C 13.2270000   16.0180000   15.6130000  
N 12.2690000   17.0400000   15.5260000  
O 14.6950000   14.3390000   14.6820000  
C 13.6180000   15.1360000   14.4620000  
O 13.0160000   15.2380000   13.3770000  
O 10.6240000   20.2890000   18.6720000  
O 12.6730000   19.5110000   20.3640000  
H 14.6040000   15.4780000   17.2960000  
H 15.1320000   14.5980000   15.4980000  
H 11.7610000   17.1240000   14.6480000  
H 10.9610000   20.5160000   19.5490000  
H 13.3520000   19.1400000   21.0050000  
H 10.3990000   18.8150000   16.3760000  
