76
110 
C 19.4580000   10.0950000   18.8770000  
C 18.8160000    9.9570000   17.5690000  
C 18.1380000   10.9920000   17.0070000  
C 17.9340000   12.1530000   17.7580000  
C 18.3050000   12.3720000   19.0650000  
C 19.1890000   11.3440000   19.7320000  
C 17.5940000   11.2210000   15.6590000  
C 17.1020000   12.5420000   15.6500000  
N 17.4040000   13.0590000   16.9570000  
O 16.6100000   12.5480000   13.3440000  
C 16.4440000   13.2040000   14.5160000  
O 15.9640000   14.3380000   14.5850000  
O 19.6810000   11.5320000   20.8530000  
O 20.3650000    9.3450000   19.2200000  
H 18.9770000    9.0710000   16.9910000  
H 17.6100000   10.5040000   14.8250000  
H 16.9830000   11.7700000   13.6320000  
H 16.9970000   13.9630000   17.2430000  
C 17.9180000   13.5650000   19.6980000  
C 16.6090000   13.7850000   20.0400000  
C 16.2310000   14.8920000   20.6920000  
C 17.0760000   15.9420000   21.1510000  
C 18.4760000   15.6960000   20.8300000  
C 18.8830000   14.5280000   20.1400000  
C 15.3800000   13.0840000   19.7270000  
C 14.3430000   13.8280000   20.3200000  
N 14.8930000   14.9390000   20.9470000  
O 12.6830000   12.2900000   19.7900000  
C 12.9660000   13.4660000   20.3670000  
O 12.0380000   14.1460000   20.8080000  
O 19.4130000   16.5570000   21.2110000  
O 20.1950000   14.3500000   19.8360000  
H 15.1910000   12.2000000   19.1180000  
H 13.5420000   11.9980000   19.3170000  
H 14.4210000   15.4940000   21.6780000  
H 18.9040000   17.3000000   21.6140000  
H 20.5680000   15.2210000   20.1410000  
C 16.6670000   17.0850000   22.0070000  
C 17.1540000   17.0890000   23.4240000  
C 17.0640000   18.1650000   24.1800000  
C 16.4110000   19.3740000   23.7230000  
C 15.8760000   19.3980000   22.3800000  
C 15.9030000   18.2180000   21.5410000  
C 18.0110000   16.1890000   24.1830000  
C 18.3720000   16.8630000   25.3520000  
N 17.6810000   18.1040000   25.3760000  
O 19.5060000   14.9780000   26.2210000  
C 19.2870000   16.3110000   26.3600000  
O 19.8050000   16.8980000   27.3370000  
O 15.3790000   20.5270000   21.8700000  
O 15.1710000   18.2340000   20.3720000  
H 18.3990000   15.2380000   23.8550000  
H 19.1790000   14.7550000   25.3460000  
H 17.7260000   18.8600000   26.0800000  
H 15.7340000   21.2120000   22.4060000  
H 14.7160000   19.0990000   20.3910000  
C 16.2050000   20.5950000   24.5950000  
C 17.3140000   21.3350000   25.0520000  
C 17.1840000   22.4370000   25.8290000  
C 15.9360000   22.9340000   26.2500000  
C 14.7950000   22.2550000   25.7630000  
C 14.9520000   21.1340000   24.8930000  
C 18.6930000   21.0980000   24.7930000  
C 19.3410000   22.1360000   25.4300000  
N 18.4380000   22.8900000   26.1340000  
O 21.5930000   21.4930000   25.0180000  
C 20.8280000   22.4800000   25.5180000  
O 21.2600000   23.5300000   26.0280000  
O 13.6250000   22.7430000   26.1970000  
O 13.8280000   20.4390000   24.4630000  
H 19.1200000   20.4010000   24.0440000  
H 21.0580000   20.8890000   24.5390000  
H 18.6830000   23.4870000   26.9160000  
H 12.9630000   22.2150000   25.7620000  
H 14.1740000   19.6680000   23.8640000  
H 15.7650000   23.7400000   26.9000000  
