76
110 
C 21.2990000   17.7440000   28.2190000  
C 20.8540000   16.5860000   29.0810000  
C 19.8050000   15.8240000   28.6770000  
C 19.1580000   15.9700000   27.4580000  
C 19.5030000   16.8700000   26.4480000  
C 20.6410000   17.7990000   26.7950000  
C 19.0650000   14.8850000   29.4130000  
C 18.1080000   14.3730000   28.5750000  
N 18.1230000   15.0890000   27.3610000  
O 17.5200000   12.6220000   30.0550000  
C 17.2130000   13.2070000   28.8810000  
O 16.2580000   12.8910000   28.1460000  
O 21.1240000   18.6000000   25.9710000  
O 21.9960000   18.6340000   28.6900000  
H 21.2790000   16.5190000   30.0680000  
H 19.1890000   14.6190000   30.4260000  
H 18.3750000   12.9190000   30.5160000  
H 17.4940000   14.9030000   26.6130000  
C 18.8970000   16.6680000   25.1330000  
C 18.1680000   17.7570000   24.6300000  
C 17.5770000   17.5810000   23.4110000  
C 17.6790000   16.4800000   22.5660000  
C 18.3490000   15.3610000   23.1220000  
C 19.0680000   15.5280000   24.3360000  
C 17.9420000   19.1260000   25.0300000  
C 17.0570000   19.6450000   24.0950000  
N 16.9270000   18.6870000   23.0390000  
O 16.6060000   21.8060000   25.1470000  
C 16.3310000   20.9260000   24.1480000  
O 15.5160000   21.1860000   23.3200000  
O 18.5680000   14.2230000   22.4310000  
O 19.8720000   14.5280000   24.7700000  
H 18.3910000   19.6480000   25.8810000  
H 17.2750000   21.3640000   25.6530000  
H 16.4390000   18.7660000   22.1420000  
H 17.8670000   14.1480000   21.7470000  
H 20.0420000   13.9380000   24.0020000  
C 16.9760000   16.4740000   21.3050000  
C 17.4980000   16.9820000   20.0340000  
C 16.7750000   16.8680000   18.9070000  
C 15.4530000   16.4390000   18.7450000  
C 14.9660000   15.8570000   19.9220000  
C 15.7530000   15.8260000   21.1300000  
C 18.8170000   17.4740000   19.6130000  
C 18.8320000   17.4780000   18.2510000  
N 17.5370000   17.2140000   17.8470000  
O 21.2120000   17.7010000   18.0960000  
C 20.0520000   17.7080000   17.3800000  
O 19.9360000   17.7910000   16.1380000  
O 13.6520000   15.3430000   19.8270000  
O 15.1930000   15.2080000   22.2110000  
H 19.6980000   17.6190000   20.2090000  
H 20.9540000   17.7950000   19.0580000  
H 17.2560000   17.2680000   16.8580000  
H 13.3830000   15.4290000   18.9060000  
H 14.2210000   15.1720000   22.2140000  
C 14.6730000   16.5400000   17.4730000  
C 14.9100000   15.6880000   16.4230000  
C 14.1730000   15.7430000   15.2160000  
C 13.2240000   16.6820000   15.0160000  
C 13.0220000   17.6240000   16.0520000  
C 13.6650000   17.4800000   17.2740000  
C 15.8830000   14.6900000   16.1690000  
C 15.6950000   14.0810000   14.9430000  
N 14.5670000   14.7100000   14.4070000  
O 17.3240000   12.3010000   15.0490000  
C 16.4050000   12.8880000   14.3180000  
O 16.1770000   12.4540000   13.2080000  
O 11.9790000   18.5340000   15.9430000  
O 13.4300000   18.3680000   18.2540000  
H 16.6120000   14.4150000   16.9260000  
H 17.4190000   12.7180000   15.9360000  
H 14.2380000   14.5890000   13.4560000  
H 12.0600000   19.2680000   16.5870000  
H 14.0640000   18.2950000   19.0000000  
H 12.6090000   16.8750000   14.0920000  
