76
110 
C 23.0140000   12.1950000   24.9160000  
C 23.0510000   12.8030000   26.2750000  
C 22.1150000   13.7500000   26.6220000  
C 21.1160000   14.2350000   25.7420000  
C 20.9340000   13.7430000   24.4580000  
C 21.7590000   12.6090000   23.9800000  
C 21.9390000   14.4950000   27.8310000  
C 20.8270000   15.4170000   27.6420000  
N 20.3340000   15.1640000   26.3480000  
O 20.9220000   16.5580000   29.7610000  
C 20.3860000   16.4940000   28.5510000  
O 19.5660000   17.2680000   28.2560000  
O 21.5850000   12.1840000   22.8400000  
O 23.8450000   11.4070000   24.5530000  
H 23.8480000   12.5720000   26.9900000  
H 22.6040000   14.4430000   28.7000000  
H 21.6090000   15.8970000   29.7160000  
H 19.5190000   15.6420000   25.9900000  
C 19.8110000   14.2690000   23.7010000  
C 19.8640000   15.5240000   23.1200000  
C 18.7740000   16.0090000   22.4110000  
C 17.5050000   15.3980000   22.2470000  
C 17.4670000   14.0630000   22.8120000  
C 18.6240000   13.5280000   23.5420000  
C 20.9130000   16.5510000   23.0760000  
C 20.3120000   17.6490000   22.4430000  
N 19.0300000   17.3390000   22.0850000  
O 22.1760000   19.2160000   22.7190000  
C 20.9440000   19.0070000   22.2100000  
O 20.3160000   19.8620000   21.6330000  
O 16.3090000   13.2620000   22.6850000  
O 18.4480000   12.3510000   24.1230000  
H 21.8570000   16.5030000   23.5790000  
H 22.4440000   18.4110000   23.0550000  
H 18.3510000   17.9540000   21.6070000  
H 15.6640000   13.8420000   22.1640000  
H 17.5200000   12.0600000   24.0950000  
C 16.4050000   16.0910000   21.5320000  
C 16.6240000   16.8590000   20.3520000  
C 15.6340000   17.5500000   19.7310000  
C 14.3280000   17.7110000   20.2870000  
C 14.1100000   17.0000000   21.5560000  
C 15.1390000   16.2200000   22.1550000  
C 17.6940000   16.9560000   19.3730000  
C 17.3040000   17.8360000   18.3440000  
N 15.9210000   18.0310000   18.4440000  
O 19.5060000   18.1890000   17.4520000  
C 18.1650000   18.3860000   17.2850000  
O 17.7470000   19.0700000   16.3220000  
O 12.9110000   17.1830000   22.2240000  
O 14.9440000   15.6630000   23.3510000  
H 18.6860000   16.5240000   19.5370000  
H 19.5980000   17.6620000   18.2630000  
H 15.2740000   18.5010000   17.8140000  
H 12.3710000   17.8020000   21.6710000  
H 14.0210000   15.8940000   23.6370000  
C 13.2830000   18.5300000   19.5770000  
C 12.6040000   17.9610000   18.4840000  
C 11.7180000   18.7330000   17.7300000  
C 11.4230000   20.0690000   17.9660000  
C 12.0710000   20.7060000   19.0820000  
C 12.9650000   19.9220000   19.9430000  
C 12.5370000   16.6960000   17.8910000  
C 11.7370000   16.7590000   16.7880000  
N 11.2400000   18.0340000   16.6400000  
O 12.0170000   14.4970000   16.4450000  
C 11.3770000   15.5880000   16.0240000  
O 10.4900000   15.5430000   15.2220000  
O 11.8840000   21.9980000   19.4200000  
O 13.6910000   20.5300000   20.9190000  
H 12.9510000   15.8240000   18.3820000  
H 12.6220000   14.8340000   17.1470000  
H 10.3830000   18.3040000   16.0050000  
H 12.0590000   22.0010000   20.3420000  
H 13.8300000   19.8820000   21.5660000  
H 10.7020000   20.5530000   17.2770000  
