76
110 
C 22.6980000   11.5160000   23.9130000  
C 23.5520000   11.5100000   22.6800000  
C 23.2640000   12.3920000   21.7420000  
C 22.0720000   13.1020000   21.6680000  
C 21.2530000   13.2310000   22.7380000  
C 21.6100000   12.6030000   24.0130000  
C 23.9100000   12.7310000   20.4650000  
C 23.1980000   13.6730000   19.7570000  
N 22.0820000   13.8380000   20.4990000  
O 24.5600000   13.7510000   17.8020000  
C 23.4820000   14.3030000   18.4450000  
O 22.6850000   15.1240000   17.9420000  
O 20.9790000   12.7650000   25.0170000  
O 22.8500000   10.6890000   24.8570000  
H 24.4220000   10.9430000   22.6090000  
H 24.9320000   12.4350000   20.1150000  
H 25.0700000   13.3610000   18.5480000  
H 21.4040000   14.5800000   20.2840000  
C 20.1490000   14.1590000   22.5730000  
C 19.0140000   13.7870000   21.8710000  
C 18.0060000   14.6850000   21.6010000  
C 17.9560000   16.0080000   22.0630000  
C 19.1740000   16.4220000   22.7400000  
C 20.1920000   15.4620000   22.9840000  
C 18.6500000   12.5130000   21.2780000  
C 17.3640000   12.7060000   20.7880000  
N 16.9730000   14.0350000   20.9580000  
O 17.0620000   10.3850000   19.8770000  
C 16.6240000   11.6800000   19.9480000  
O 15.7140000   11.9890000   19.2510000  
O 19.2650000   17.6640000   23.2500000  
O 21.3000000   15.8950000   23.6440000  
H 19.2600000   11.6240000   21.2200000  
H 17.8500000   10.3110000   20.4020000  
H 16.0770000   14.4420000   20.6420000  
H 18.3810000   17.9110000   23.1620000  
H 21.1760000   16.8420000   23.7260000  
C 16.7510000   16.9310000   21.8510000  
C 15.9700000   17.3250000   22.9760000  
C 14.8800000   18.1580000   22.7970000  
C 14.3160000   18.4390000   21.5610000  
C 15.0930000   17.9590000   20.4090000  
C 16.2980000   17.2910000   20.5700000  
C 16.0560000   16.9580000   24.4240000  
C 15.0240000   17.7120000   24.9800000  
N 14.2850000   18.4330000   23.9860000  
O 15.3980000   16.8340000   27.1260000  
C 14.6490000   17.6930000   26.3980000  
O 13.6520000   18.2010000   26.8530000  
O 14.8240000   18.3530000   19.2090000  
O 16.8850000   16.8720000   19.3700000  
H 16.7050000   16.2440000   24.8820000  
H 15.9550000   16.4310000   26.4410000  
H 13.5730000   19.1270000   24.1090000  
H 14.1080000   19.0040000   19.2010000  
H 17.6260000   16.2500000   19.5580000  
C 13.0380000   19.2740000   21.3890000  
C 13.0940000   20.5750000   20.8580000  
C 11.9720000   21.3030000   20.6530000  
C 10.7100000   20.8910000   21.0400000  
C 10.6310000   19.5810000   21.5990000  
C 11.7870000   18.8230000   21.8080000  
C 14.2560000   21.3050000   20.4240000  
C 13.7320000   22.6080000   20.0880000  
N 12.3310000   22.5900000   20.2160000  
O 15.8400000   23.3360000   19.3440000  
C 14.5530000   23.7010000   19.5260000  
O 14.1980000   24.8010000   19.2330000  
O  9.4250000   19.0840000   22.0380000  
O 11.7450000   17.5960000   22.4310000  
H 15.2260000   20.9000000   20.4730000  
H 15.8470000   22.4430000   19.6970000  
H 11.6850000   23.3480000   20.0120000  
H  9.6900000   18.1360000   22.3350000  
H 12.5720000   17.3860000   22.9060000  
H  9.8400000   21.5060000   20.8910000  
