76
110 
C 20.9380000   10.3590000   19.0170000  
C 20.3020000   10.1500000   17.6970000  
C 19.4710000   11.0870000   17.1580000  
C 19.1890000   12.2820000   17.8530000  
C 19.4210000   12.4830000   19.1630000  
C 20.3250000   11.5110000   19.9190000  
C 18.7980000   11.1940000   15.9340000  
C 18.1220000   12.3970000   15.9120000  
N 18.4490000   13.0550000   17.0800000  
O 17.0760000   12.0090000   13.8240000  
C 17.2040000   12.8360000   14.9120000  
O 16.5030000   13.8540000   15.0250000  
O 20.5090000   11.5240000   21.1300000  
O 21.8860000    9.6520000   19.3700000  
H 20.7980000    9.4690000   17.1420000  
H 18.7720000   10.4650000   15.1880000  
H 17.4340000   11.1370000   14.0970000  
H 18.0510000   13.9440000   17.4020000  
C 18.8430000   13.6900000   19.7900000  
C 17.8270000   13.5100000   20.7550000  
C 17.2250000   14.5230000   21.4160000  
C 17.6650000   15.8660000   21.2900000  
C 18.8510000   16.0460000   20.4570000  
C 19.3940000   14.9960000   19.7080000  
C 17.1330000   12.2740000   21.1580000  
C 16.1460000   12.6980000   22.0810000  
N 16.2210000   14.1080000   22.2430000  
O 15.2860000   10.5450000   22.5070000  
C 15.2790000   11.8200000   22.8670000  
O 14.6130000   12.2430000   23.8250000  
O 19.3830000   17.2550000   20.4200000  
O 20.5450000   15.1310000   19.0750000  
H 17.2910000   11.2770000   20.8010000  
H 16.1270000   10.2660000   22.1070000  
H 15.5320000   14.6340000   22.7120000  
H 18.7820000   17.8650000   20.7950000  
H 20.9700000   15.8660000   19.4220000  
C 17.0800000   16.9050000   22.1300000  
C 17.7320000   17.5370000   23.2260000  
C 17.1670000   18.5700000   23.9530000  
C 15.8790000   18.9780000   23.8200000  
C 15.2120000   18.4000000   22.7230000  
C 15.7480000   17.3930000   21.9130000  
C 19.0700000   17.4330000   23.7090000  
C 19.2630000   18.3560000   24.7390000  
N 18.0600000   19.1330000   24.7920000  
O 21.7140000   18.0430000   24.8970000  
C 20.5710000   18.6990000   25.3180000  
O 20.7090000   19.5400000   26.1860000  
O 13.9050000   18.8490000   22.5550000  
O 15.0350000   16.9540000   20.8230000  
H 19.7470000   16.7100000   23.2720000  
H 21.4540000   17.3740000   24.2830000  
H 17.8680000   19.9810000   25.3240000  
H 13.6880000   19.5440000   23.2400000  
H 15.5450000   16.2070000   20.4440000  
C 15.2410000   19.9640000   24.7340000  
C 14.9190000   21.2600000   24.2290000  
C 14.3390000   22.2170000   25.0150000  
C 14.0070000   21.9470000   26.3510000  
C 14.1870000   20.6520000   26.8680000  
C 14.8580000   19.7050000   26.1070000  
C 15.1970000   21.8720000   22.9370000  
C 14.9990000   23.2330000   23.0990000  
N 14.2990000   23.4360000   24.2850000  
O 15.9250000   23.9700000   21.1010000  
C 15.2250000   24.3480000   22.1730000  
O 14.9590000   25.5550000   22.4110000  
O 13.8280000   20.3860000   28.1790000  
O 14.9450000   18.4410000   26.6090000  
H 15.5770000   21.3450000   22.0820000  
H 16.3330000   23.1130000   21.2580000  
H 14.0830000   24.3310000   24.6560000  
H 13.9350000   19.4220000   28.2720000  
H 15.5940000   17.9840000   26.0210000  
H 13.6030000   22.6390000   27.0610000  
