76
110 
C 23.0760000   16.2980000   26.7440000  
C 23.3670000   14.7940000   26.6950000  
C 22.4420000   14.0290000   25.9830000  
C 21.4130000   14.5060000   25.2680000  
C 21.0470000   15.8160000   25.2150000  
C 21.8760000   16.8570000   25.8390000  
C 22.3320000   12.5570000   25.9580000  
C 21.2660000   12.1800000   25.1520000  
N 20.6810000   13.4490000   24.7630000  
O 21.5570000    9.8020000   25.3160000  
C 20.8970000   10.8300000   24.7160000  
O 20.0750000   10.4690000   23.9170000  
O 21.7000000   18.0400000   25.6990000  
O 23.7180000   16.9700000   27.5530000  
H 24.1190000   14.2760000   27.3080000  
H 23.0410000   11.9230000   26.4870000  
H 22.0350000   10.1400000   26.0360000  
H 19.8660000   13.5930000   24.1570000  
C 19.8910000   16.0670000   24.3350000  
C 18.5860000   16.2110000   24.7690000  
C 17.5940000   16.5010000   23.8790000  
C 17.6990000   16.5310000   22.4620000  
C 19.0040000   16.3330000   22.0130000  
C 20.0790000   16.0650000   22.9200000  
C 18.0160000   16.2660000   26.0360000  
C 16.6480000   16.6990000   25.8490000  
N 16.4290000   16.7920000   24.4400000  
O 16.2010000   17.2630000   28.1070000  
C 15.6740000   17.1800000   26.8600000  
O 14.5500000   17.5990000   26.6620000  
O 19.1710000   16.1730000   20.6770000  
O 21.3290000   15.9100000   22.3570000  
H 18.6030000   16.1430000   26.9510000  
H 17.0150000   16.7830000   27.9700000  
H 15.5450000   17.0000000   23.9220000  
H 18.3000000   16.2950000   20.2620000  
H 21.2320000   16.1120000   21.3810000  
C 16.5720000   16.9100000   21.5990000  
C 16.7000000   18.0110000   20.7520000  
C 15.7460000   18.3370000   19.8460000  
C 14.5960000   17.6090000   19.5970000  
C 14.3770000   16.5310000   20.5270000  
C 15.3380000   16.1970000   21.5040000  
C 17.7650000   18.9180000   20.5690000  
C 17.4230000   19.7890000   19.5420000  
N 16.2090000   19.3890000   19.0810000  
O 19.3070000   21.2340000   19.6970000  
C 18.1850000   20.9590000   19.0200000  
O 17.8310000   21.5590000   18.0060000  
O 13.2090000   15.7170000   20.4170000  
O 15.1270000   15.0110000   22.2190000  
H 18.6820000   19.0200000   21.1220000  
H 19.3390000   20.5700000   20.3720000  
H 15.8180000   19.8290000   18.2920000  
H 12.6540000   16.3560000   19.9000000  
H 14.1980000   14.7780000   22.0050000  
C 13.5610000   17.8940000   18.5430000  
C 13.3780000   17.0190000   17.4910000  
C 12.4970000   17.1870000   16.4420000  
C 11.5910000   18.2280000   16.4130000  
C 11.6150000   19.1600000   17.5240000  
C 12.6220000   19.0160000   18.5510000  
C 14.2000000   15.9200000   17.0900000  
C 13.7890000   15.4620000   15.8720000  
N 12.6740000   16.2170000   15.4980000  
O 15.3070000   13.6490000   15.4870000  
C 14.3080000   14.3130000   15.0040000  
O 13.7690000   13.9150000   14.0140000  
O 10.6270000   20.1230000   17.7530000  
O 12.6980000   19.8680000   19.6490000  
H 14.9630000   15.4390000   17.6280000  
H 15.4730000   13.9540000   16.3930000  
H 12.0150000   15.9310000   14.7910000  
H 10.6970000   20.3440000   18.6690000  
H 13.4340000   19.6040000   20.1890000  
H 10.9010000   18.4510000   15.5910000  
