76
110 
C 16.5710000   20.4280000   27.8790000  
C 16.2370000   19.5680000   28.9900000  
C 16.1740000   18.2320000   28.7590000  
C 16.3520000   17.6200000   27.5640000  
C 16.6130000   18.3080000   26.3870000  
C 16.8930000   19.7470000   26.4370000  
C 15.7870000   17.1960000   29.6810000  
C 15.7640000   15.9480000   29.0290000  
N 16.0480000   16.2990000   27.7000000  
O 15.5730000   14.6030000   30.9370000  
C 15.5880000   14.6870000   29.5830000  
O 15.5300000   13.7140000   28.8620000  
O 17.3300000   20.3500000   25.4500000  
O 16.7360000   21.6230000   27.9990000  
H 16.0320000   19.9700000   29.9160000  
H 15.6590000   17.4070000   30.6950000  
H 15.8960000   15.4670000   31.1040000  
H 16.1210000   15.6440000   26.9610000  
C 16.7320000   17.5480000   25.1500000  
C 15.5960000   17.3240000   24.4130000  
C 15.7750000   16.8670000   23.1220000  
C 17.0170000   16.5210000   22.5050000  
C 18.0770000   16.5540000   23.4230000  
C 17.9750000   17.1440000   24.6950000  
C 14.2470000   17.7340000   24.5470000  
C 13.5940000   17.3800000   23.3990000  
N 14.5810000   16.9060000   22.4870000  
O 11.4870000   18.1790000   23.9990000  
C 12.2080000   17.5660000   23.0250000  
O 11.7960000   17.3520000   21.9160000  
O 19.2980000   16.1390000   23.0090000  
O 19.0430000   17.4660000   25.4320000  
H 13.8130000   18.1910000   25.3830000  
H 12.1690000   18.1200000   24.6730000  
H 14.4120000   16.5770000   21.5680000  
H 19.2560000   15.6470000   22.1500000  
H 19.8070000   17.6260000   24.8990000  
C 17.2210000   16.0670000   21.0780000  
C 17.8870000   16.8640000   20.1340000  
C 18.0050000   16.4640000   18.8370000  
C 17.4620000   15.3180000   18.2420000  
C 16.7840000   14.4810000   19.1820000  
C 16.5810000   14.8500000   20.5540000  
C 18.5490000   18.0860000   20.2560000  
C 19.0610000   18.3920000   19.0030000  
N 18.6390000   17.4110000   18.1170000  
O 19.9960000   20.5320000   19.6580000  
C 19.7850000   19.6290000   18.6620000  
O 20.1600000   19.8230000   17.5300000  
O 16.4150000   13.2350000   18.7520000  
O 15.9590000   13.9830000   21.3900000  
H 18.4460000   18.7370000   21.1050000  
H 19.6460000   20.1280000   20.4730000  
H 18.9380000   17.4150000   17.0850000  
H 16.7230000   13.1770000   17.7990000  
H 15.8060000   13.1650000   21.0040000  
C 17.6100000   14.8860000   16.8130000  
C 18.8930000   14.4950000   16.4120000  
C 19.0750000   13.9440000   15.1810000  
C 18.0090000   13.8230000   14.2760000  
C 16.7920000   14.3020000   14.6260000  
C 16.5090000   14.7970000   15.9330000  
C 20.2760000   14.4950000   17.0290000  
C 21.1960000   14.0410000   16.0770000  
N 20.4240000   13.7620000   14.9580000  
O 23.0980000   13.9210000   17.4410000  
C 22.6190000   13.6770000   16.2320000  
O 23.2400000   13.1320000   15.2980000  
O 15.8550000   14.1660000   13.6820000  
O 15.2510000   15.2760000   16.2270000  
H 20.4160000   14.6810000   18.0560000  
H 22.3540000   14.3220000   17.8770000  
H 20.8220000   13.3890000   14.1640000  
H 14.9570000   13.9780000   14.0430000  
H 15.1110000   15.3050000   17.2150000  
H 18.1390000   13.4480000   13.2240000  
