76
110 
C 19.7750000    9.7750000   19.1060000  
C 20.9580000    9.5660000   19.9720000  
C 21.2990000   10.4040000   20.9520000  
C 20.5290000   11.4970000   21.2770000  
C 19.3750000   11.8730000   20.5470000  
C 18.9480000   11.0660000   19.3580000  
C 22.2940000   10.2940000   22.0030000  
C 22.0280000   11.2760000   22.9540000  
N 20.9910000   12.0550000   22.4580000  
O 23.7740000   10.7320000   24.6890000  
C 22.8270000   11.6160000   24.2010000  
O 22.6420000   12.6000000   24.8760000  
O 18.0540000   11.3870000   18.6020000  
O 19.4590000    9.0430000   18.1320000  
H 21.6150000    8.6760000   19.7760000  
H 23.1070000    9.5610000   21.9690000  
H 23.6040000    9.9210000   24.2400000  
H 20.4910000   12.7670000   22.9680000  
C 18.6820000   13.0860000   20.9450000  
C 19.3400000   14.3190000   20.7890000  
C 18.5920000   15.4070000   21.1660000  
C 17.3550000   15.4360000   21.7740000  
C 16.7210000   14.1710000   21.9380000  
C 17.4510000   13.0070000   21.5690000  
C 20.6030000   14.7610000   20.2780000  
C 20.7280000   16.1300000   20.6000000  
N 19.4360000   16.5430000   21.1500000  
O 22.8630000   16.2500000   19.6930000  
C 21.8610000   16.9610000   20.2640000  
O 21.9650000   18.1600000   20.4500000  
O 15.4820000   14.0140000   22.4900000  
O 16.8440000   11.7870000   21.7970000  
H 21.2890000   14.1940000   19.7240000  
H 22.5760000   15.3470000   19.4400000  
H 19.2020000   17.5270000   21.3800000  
H 14.8930000   14.7770000   22.2710000  
H 15.9790000   11.9400000   22.1820000  
C 16.7700000   16.7210000   22.2190000  
C 16.3240000   17.6830000   21.2540000  
C 15.6500000   18.7840000   21.6820000  
C 15.4140000   19.1600000   22.9840000  
C 15.7100000   18.1930000   24.0080000  
C 16.3790000   16.9710000   23.6020000  
C 16.4820000   17.8240000   19.7880000  
C 15.8990000   19.0700000   19.4440000  
N 15.4290000   19.6520000   20.6270000  
O 16.2060000   18.8270000   17.0430000  
C 15.7470000   19.6070000   18.0410000  
O 15.1730000   20.6720000   17.8700000  
O 15.4450000   18.3510000   25.3110000  
O 16.8370000   16.1460000   24.5960000  
H 17.0350000   17.1560000   19.0840000  
H 16.4300000   18.0540000   17.5030000  
H 14.8840000   20.4970000   20.5650000  
H 14.9290000   19.1960000   25.4000000  
H 16.3880000   16.3650000   25.4110000  
C 14.8040000   20.5000000   23.4140000  
C 13.4390000   20.8300000   23.0160000  
C 12.8520000   22.0010000   23.4620000  
C 13.5060000   22.8230000   24.3360000  
C 14.8160000   22.5500000   24.7130000  
C 15.4520000   21.3500000   24.3040000  
C 12.4920000   20.1780000   22.1740000  
C 11.4190000   21.0370000   22.0450000  
N 11.6050000   22.0640000   22.9360000  
O 10.1290000   19.5610000   20.7370000  
C 10.1660000   20.7840000   21.3400000  
O  9.2820000   21.6310000   21.2940000  
O 15.4520000   23.3920000   25.4620000  
O 16.7990000   21.2180000   24.5060000  
H 12.6090000   19.1330000   21.8260000  
H 10.9460000   19.1460000   21.0630000  
H 10.8810000   22.7440000   23.2270000  
H 16.3260000   22.9890000   25.7490000  
H 17.2230000   20.4030000   24.0500000  
H 13.0930000   23.7280000   24.5100000  
