76
110 
C 10.2170000   16.8850000   18.8860000  
C  9.4210000   16.2160000   19.9440000  
C  9.9190000   15.7650000   21.1680000  
C 11.2720000   15.9460000   21.3950000  
C 12.1860000   16.5840000   20.6190000  
C 11.7450000   17.0240000   19.3020000  
C  9.3520000   15.1820000   22.3240000  
C 10.3340000   14.9600000   23.2430000  
N 11.5200000   15.3490000   22.6060000  
O  8.9570000   13.9890000   24.8700000  
C 10.2070000   14.4450000   24.6000000  
O 11.2090000   14.4540000   25.3160000  
O 12.5010000   17.5470000   18.5260000  
O  9.7840000   17.5040000   17.9030000  
H  8.3960000   16.0090000   19.7040000  
H  8.2200000   15.0310000   22.3900000  
H  8.4840000   14.1800000   24.0890000  
H 12.4780000   15.1370000   22.9430000  
C 13.5720000   16.5950000   21.0200000  
C 14.4050000   15.5290000   20.7690000  
C 15.7360000   15.5900000   21.0950000  
C 16.3670000   16.7060000   21.7000000  
C 15.4630000   17.8230000   21.9950000  
C 14.1250000   17.7470000   21.6120000  
C 14.2090000   14.2350000   20.1470000  
C 15.4770000   13.6140000   20.0820000  
N 16.4350000   14.4240000   20.6940000  
O 14.7460000   11.7930000   18.7230000  
C 15.7740000   12.3840000   19.4010000  
O 16.8940000   11.9090000   19.3640000  
O 16.0590000   18.8880000   22.6290000  
O 13.4500000   18.9390000   21.7630000  
H 13.3360000   13.8290000   19.6800000  
H 13.8880000   12.2460000   18.9620000  
H 17.4470000   14.3690000   20.6510000  
H 17.0640000   18.8650000   22.4810000  
H 13.7330000   19.3520000   22.5950000  
C 17.8400000   16.7760000   21.9310000  
C 18.5930000   17.6640000   21.1260000  
C 19.9480000   17.6920000   21.3450000  
C 20.7650000   16.8040000   22.0960000  
C 20.0070000   15.9670000   22.9760000  
C 18.5730000   15.9560000   22.9060000  
C 18.2820000   18.6270000   20.1290000  
C 19.5020000   19.1850000   19.7110000  
N 20.5360000   18.4710000   20.3570000  
O 18.5700000   20.4840000   17.9530000  
C 19.6670000   20.1000000   18.6260000  
O 20.7670000   20.4200000   18.2500000  
O 20.6540000   15.2020000   23.8900000  
O 17.7760000   15.1240000   23.8100000  
H 17.3130000   18.8780000   19.7330000  
H 17.8040000   20.0570000   18.3230000  
H 21.4300000   18.7720000   20.3440000  
H 21.6530000   15.4150000   23.8850000  
H 16.8980000   15.3210000   23.5860000  
C 22.2580000   16.8330000   22.1110000  
C 23.0280000   17.0470000   23.3330000  
C 24.3790000   16.8370000   23.3840000  
C 25.0690000   16.3550000   22.3100000  
C 24.3830000   16.2070000   21.0650000  
C 22.9710000   16.4050000   20.9410000  
C 22.6070000   17.4150000   24.6790000  
C 23.7770000   17.3480000   25.4530000  
N 24.8520000   17.0270000   24.6410000  
O 22.7210000   17.4620000   27.5490000  
C 23.8430000   17.3940000   26.9600000  
O 24.8750000   17.4100000   27.5770000  
O 25.0920000   16.0440000   19.8710000  
O 22.3650000   16.0270000   19.7220000  
H 21.6260000   17.6260000   25.0570000  
H 22.1610000   17.7010000   26.8050000  
H 25.7760000   16.7780000   24.9290000  
H 24.5830000   16.4480000   19.1260000  
H 21.4220000   16.1140000   19.7610000  
H 26.1100000   16.2200000   22.4490000  
