76
110 
C  9.6610000   17.8640000   21.5750000  
C  9.3460000   18.0940000   22.9940000  
C 10.3570000   17.9070000   23.8980000  
C 11.6910000   17.6270000   23.5080000  
C 12.1610000   17.6090000   22.1790000  
C 11.1980000   17.7770000   21.1490000  
C 10.4610000   18.2770000   25.2550000  
C 11.7880000   18.2510000   25.6570000  
N 12.5290000   17.8560000   24.5400000  
O 11.3460000   18.5250000   27.9820000  
C 12.3270000   18.3420000   27.0390000  
O 13.5070000   18.4050000   27.3350000  
O 11.5160000   17.7090000   19.9690000  
O  8.7780000   17.9200000   20.7160000  
H  8.3000000   18.3380000   23.2390000  
H  9.5640000   18.5090000   25.8970000  
H 10.4800000   18.5020000   27.5620000  
H 13.5340000   17.8660000   24.4980000  
C 13.5690000   17.2970000   21.9170000  
C 14.0070000   15.9800000   21.8420000  
C 15.3120000   15.6850000   21.8300000  
C 16.3820000   16.6550000   21.7540000  
C 15.9800000   17.9590000   21.8720000  
C 14.5770000   18.3140000   21.9910000  
C 13.2000000   14.8220000   21.5800000  
C 14.1900000   13.8160000   21.4080000  
N 15.5010000   14.3570000   21.5170000  
O 12.6060000   12.1040000   20.8280000  
C 13.8930000   12.4270000   21.1010000  
O 14.7280000   11.5740000   21.1150000  
O 16.8240000   18.9070000   21.9710000  
O 14.1860000   19.6570000   22.0510000  
H 12.1490000   14.6680000   21.4280000  
H 12.1200000   12.9200000   20.7370000  
H 16.3920000   13.8560000   21.5170000  
H 17.6890000   18.4760000   21.5950000  
H 14.9620000   20.1020000   22.4750000  
C 17.7930000   16.2830000   21.6220000  
C 18.5940000   16.6860000   20.4920000  
C 19.8520000   16.1960000   20.3790000  
C 20.5090000   15.3230000   21.2490000  
C 19.8310000   15.0480000   22.4320000  
C 18.4740000   15.4390000   22.5590000  
C 18.3820000   17.4960000   19.3150000  
C 19.5450000   17.5010000   18.5540000  
N 20.4890000   16.6870000   19.2750000  
O 18.8690000   19.1970000   16.9620000  
C 19.8150000   18.3150000   17.3080000  
O 20.9070000   18.2730000   16.7820000  
O 20.5360000   14.3530000   23.4050000  
O 17.8490000   15.0100000   23.6920000  
H 17.4940000   18.0550000   19.0430000  
H 18.0650000   18.9510000   17.4250000  
H 21.4350000   16.5210000   18.9320000  
H 21.3390000   13.8910000   23.0370000  
H 18.4250000   14.6240000   24.3430000  
C 21.8700000   14.8150000   20.9490000  
C 23.0010000   15.6780000   21.0510000  
C 24.2830000   15.2650000   20.8370000  
C 24.5520000   13.8970000   20.6650000  
C 23.4140000   13.0090000   20.4870000  
C 22.0810000   13.4690000   20.6620000  
C 23.1240000   17.1060000   21.4550000  
C 24.4650000   17.4140000   21.5480000  
N 25.1760000   16.2950000   21.1430000  
O 23.9960000   19.5860000   22.4990000  
C 24.9770000   18.6950000   22.0840000  
O 26.1400000   19.0510000   21.9550000  
O 23.5710000   11.7400000   20.1130000  
O 21.0680000   12.5400000   20.5040000  
H 22.2110000   17.6580000   21.7160000  
H 23.2310000   19.0710000   22.4630000  
H 26.1760000   16.1130000   21.2180000  
H 22.7380000   11.3090000   19.9690000  
H 20.2680000   12.8480000   20.8240000  
H 25.5150000   13.4960000   20.7140000  
