76
110 
C 20.1950000    9.6450000   20.8390000  
C 20.8600000    9.7310000   19.5240000  
C 20.7910000   10.8610000   18.6920000  
C 20.1110000   11.9940000   19.1700000  
C 19.4790000   12.0960000   20.4040000  
C 19.5150000   10.9870000   21.3810000  
C 21.2930000   11.2030000   17.3710000  
C 20.8600000   12.5020000   17.0780000  
N 20.2370000   12.9970000   18.2740000  
O 21.4550000   12.6920000   14.7390000  
C 20.8670000   13.3000000   15.8170000  
O 20.3580000   14.4430000   15.7120000  
O 18.9800000   11.1030000   22.5130000  
O 20.3140000    8.6930000   21.5860000  
H 21.3380000    8.8120000   19.1860000  
H 21.7510000   10.3990000   16.7420000  
H 21.5240000   11.7760000   15.0040000  
H 20.0190000   13.9960000   18.4750000  
C 18.8410000   13.3650000   20.7420000  
C 17.5320000   13.6370000   20.3110000  
C 16.8960000   14.7560000   20.6680000  
C 17.4650000   15.8880000   21.4010000  
C 18.8120000   15.6220000   21.8270000  
C 19.4410000   14.3600000   21.5600000  
C 16.7230000   12.8820000   19.4390000  
C 15.5740000   13.6690000   19.2170000  
N 15.6730000   14.8660000   19.9960000  
O 15.0140000   12.2170000   17.4330000  
C 14.7040000   13.3760000   18.1420000  
O 13.7810000   14.0200000   17.7500000  
O 19.5390000   16.5030000   22.6080000  
O 20.7270000   14.1770000   22.0220000  
H 16.8370000   11.8730000   18.9770000  
H 15.6780000   11.7210000   17.9510000  
H 15.0830000   15.5510000   20.0660000  
H 18.9600000   17.0260000   23.1730000  
H 20.9840000   14.6170000   22.8440000  
C 16.7190000   17.1140000   21.7510000  
C 16.3180000   17.2980000   23.1210000  
C 15.6310000   18.3880000   23.5440000  
C 15.2570000   19.4410000   22.7030000  
C 15.6020000   19.2670000   21.2940000  
C 16.3510000   18.1340000   20.8130000  
C 16.4480000   16.4160000   24.2280000  
C 15.8790000   17.0770000   25.2980000  
N 15.3370000   18.2930000   24.8780000  
O 16.5170000   15.1810000   26.7600000  
C 15.8560000   16.3780000   26.6060000  
O 15.1980000   16.9090000   27.4870000  
O 15.2530000   20.3380000   20.4200000  
O 16.7260000   17.9200000   19.5190000  
H 16.8870000   15.4230000   24.1660000  
H 17.1090000   15.0820000   25.9990000  
H 14.8870000   18.9830000   25.4940000  
H 14.8590000   21.0950000   20.9300000  
H 16.4530000   18.7290000   19.0680000  
C 14.7990000   20.7940000   23.2170000  
C 15.5800000   21.5500000   24.1760000  
C 15.1530000   22.7320000   24.6620000  
C 13.8710000   23.1920000   24.4070000  
C 12.9750000   22.4500000   23.5350000  
C 13.5050000   21.3130000   22.8820000  
C 16.9440000   21.3890000   24.6570000  
C 17.2180000   22.4560000   25.4870000  
N 16.1620000   23.4010000   25.3680000  
O 19.4410000   21.7660000   25.9760000  
C 18.5020000   22.7320000   26.1390000  
O 18.7860000   23.7060000   26.8450000  
O 11.7500000   22.9480000   23.1830000  
O 12.7090000   20.6360000   21.9890000  
H 17.6020000   20.5980000   24.3220000  
H 19.0230000   21.1190000   25.4200000  
H 16.1620000   24.3050000   25.7430000  
H 11.4490000   22.4870000   22.3930000  
H 13.1070000   19.8170000   21.7370000  
H 13.6080000   24.1350000   24.9080000  
