76
110 
C 15.6680000   11.8330000   15.6700000  
C 14.1980000   11.9700000   15.7600000  
C 13.5990000   12.6690000   16.7590000  
C 14.3270000   13.2130000   17.8700000  
C 15.6730000   13.2750000   17.9480000  
C 16.4550000   12.7230000   16.8140000  
C 12.2470000   13.1160000   16.8240000  
C 12.1240000   13.8550000   18.0350000  
N 13.4010000   13.9350000   18.6250000  
O  9.8310000   14.3820000   17.7500000  
C 10.9260000   14.5770000   18.4750000  
O 10.9170000   15.3260000   19.4500000  
O 17.6420000   12.9900000   16.7420000  
O 16.3690000   11.3530000   14.8080000  
H 13.5200000   11.3920000   15.0340000  
H 11.5500000   13.0480000   16.0660000  
H  9.9580000   13.7870000   16.9280000  
H 13.6840000   14.5030000   19.4370000  
C 16.1680000   14.1000000   19.0510000  
C 16.4500000   13.6450000   20.3020000  
C 17.0870000   14.4000000   21.2690000  
C 17.3670000   15.7810000   21.0720000  
C 16.9530000   16.3080000   19.8300000  
C 16.4070000   15.4930000   18.8570000  
C 16.1640000   12.3420000   20.8720000  
C 16.5770000   12.4570000   22.1980000  
N 17.1550000   13.7370000   22.4150000  
O 16.2480000   10.0430000   22.6440000  
C 16.6940000   11.2460000   23.1270000  
O 17.1330000   11.2460000   24.2780000  
O 17.2170000   17.5550000   19.4540000  
O 16.2340000   15.9690000   17.6170000  
H 15.7220000   11.4550000   20.3520000  
H 16.1140000   10.1590000   21.6950000  
H 17.4300000   14.1300000   23.3060000  
H 17.9420000   17.8840000   20.0800000  
H 16.3010000   16.9550000   17.5480000  
C 17.9330000   16.6690000   22.1370000  
C 19.2260000   17.2650000   22.0480000  
C 19.6600000   18.0250000   23.0680000  
C 18.9300000   18.2910000   24.2160000  
C 17.6450000   17.8070000   24.2360000  
C 17.2000000   16.8920000   23.2750000  
C 20.3310000   17.1810000   21.1230000  
C 21.3080000   17.9720000   21.5630000  
N 20.9360000   18.5200000   22.8180000  
O 22.6870000   17.7930000   19.5410000  
C 22.5090000   18.3210000   20.7790000  
O 23.3420000   19.0680000   21.2580000  
O 16.8300000   18.2070000   25.2290000  
O 15.9150000   16.5000000   23.3290000  
H 20.5220000   16.6370000   20.1550000  
H 21.7960000   17.7040000   19.1670000  
H 21.4590000   19.1230000   23.4340000  
H 17.3200000   18.9310000   25.6360000  
H 15.6060000   16.0170000   22.4930000  
C 19.4830000   19.1820000   25.3350000  
C 18.8780000   20.4420000   25.6150000  
C 19.3220000   21.1600000   26.7260000  
C 20.3490000   20.7160000   27.5300000  
C 20.9790000   19.5320000   27.2290000  
C 20.5740000   18.7600000   26.1170000  
C 17.7260000   21.1770000   25.0400000  
C 17.4870000   22.2910000   25.8530000  
N 18.4650000   22.2860000   26.8640000  
O 15.6470000   23.1060000   24.6620000  
C 16.4530000   23.2650000   25.7300000  
O 16.1990000   24.1710000   26.4520000  
O 22.0830000   19.2100000   27.9360000  
O 21.1110000   17.5060000   25.8980000  
H 17.0870000   20.7590000   24.2780000  
H 15.8560000   22.3190000   24.1210000  
H 18.4460000   22.9860000   27.5860000  
H 22.3730000   18.3550000   27.6600000  
H 20.5470000   16.9590000   25.2700000  
H 20.6130000   21.3180000   28.4090000  
