76
110 
C 19.7440000   10.3550000   17.8420000  
C 19.1100000   10.5310000   16.5450000  
C 18.1370000   11.4860000   16.4540000  
C 17.8660000   12.4340000   17.3810000  
C 18.4060000   12.4960000   18.6670000  
C 19.3690000   11.4070000   19.0140000  
C 17.3260000   11.8970000   15.2760000  
C 16.6280000   13.0520000   15.5580000  
N 17.0150000   13.3390000   16.8930000  
O 15.5500000   13.2810000   13.4650000  
C 15.5750000   13.6720000   14.7500000  
O 14.8150000   14.5340000   15.1750000  
O 19.9570000   11.3490000   20.0940000  
O 20.4470000    9.4150000   18.0750000  
H 19.2970000    9.7390000   15.7610000  
H 17.2990000   11.3640000   14.3070000  
H 16.3660000   12.8290000   13.0800000  
H 16.6150000   14.0160000   17.5050000  
C 18.0290000   13.5720000   19.5610000  
C 17.2390000   13.3480000   20.6810000  
C 16.8700000   14.3680000   21.5030000  
C 17.3280000   15.6620000   21.3800000  
C 18.1320000   15.9050000   20.2300000  
C 18.4890000   14.8820000   19.3550000  
C 16.7310000   12.1350000   21.2440000  
C 16.3370000   12.5020000   22.5380000  
N 16.3010000   13.9170000   22.6540000  
O 15.9070000   10.2590000   23.1430000  
C 15.9370000   11.5510000   23.5680000  
O 15.5140000   11.8380000   24.6630000  
O 18.6170000   17.1930000   20.0060000  
O 19.0200000   15.1730000   18.1870000  
H 16.7670000   11.1500000   20.8580000  
H 16.3800000   10.3210000   22.2660000  
H 16.0890000   14.4360000   23.4750000  
H 18.5000000   17.7190000   20.8370000  
H 19.0140000   16.1020000   18.1310000  
C 17.1370000   16.7670000   22.3820000  
C 18.2530000   17.4210000   23.0460000  
C 17.8910000   18.4010000   23.9610000  
C 16.6360000   18.9630000   24.3180000  
C 15.5730000   18.3330000   23.6340000  
C 15.8060000   17.2070000   22.7340000  
C 19.6590000   17.2670000   23.0980000  
C 20.1690000   18.2100000   23.9700000  
N 19.0940000   18.9950000   24.4580000  
O 22.4310000   17.7280000   23.4900000  
C 21.6090000   18.3640000   24.3440000  
O 21.9250000   19.1700000   25.2450000  
O 14.3000000   18.6330000   24.0270000  
O 14.7260000   16.5110000   22.1590000  
H 20.2580000   16.5110000   22.5760000  
H 21.8490000   17.4140000   22.8180000  
H 19.1070000   19.7140000   25.1150000  
H 14.3660000   19.2720000   24.6810000  
H 15.2590000   16.0130000   21.4900000  
C 16.4070000   20.0650000   25.3450000  
C 15.9930000   21.3230000   24.8210000  
C 15.6130000   22.3110000   25.6530000  
C 15.4470000   22.1620000   27.0190000  
C 15.7660000   20.9050000   27.5690000  
C 16.3000000   19.8640000   26.7920000  
C 16.0570000   21.8380000   23.4790000  
C 15.5930000   23.1240000   23.5320000  
N 15.2660000   23.4170000   24.8550000  
O 15.7720000   23.6130000   21.2740000  
C 15.4290000   24.1010000   22.4560000  
O 14.9990000   25.1940000   22.6230000  
O 15.6960000   20.8040000   28.9640000  
O 16.6880000   18.6540000   27.2680000  
H 16.3180000   21.2990000   22.5600000  
H 15.7880000   22.6560000   21.4130000  
H 14.9080000   24.2940000   25.2050000  
H 16.0530000   19.9260000   29.2230000  
H 16.9080000   18.0590000   26.5970000  
H 15.0790000   22.9630000   27.6850000  
