76
110 
C 16.1410000    9.6520000   18.4270000  
C 17.2240000    9.7030000   17.4190000  
C 17.9260000   10.8720000   17.2660000  
C 17.7160000   11.9990000   18.0280000  
C 16.6880000   12.1290000   19.0050000  
C 15.7890000   10.9100000   19.2670000  
C 19.0490000   11.1530000   16.4530000  
C 19.3860000   12.4800000   16.5750000  
N 18.5620000   12.9360000   17.5800000  
O 21.1700000   12.4890000   15.0250000  
C 20.3270000   13.2440000   15.7790000  
O 20.3320000   14.4790000   15.7250000  
O 14.9280000   10.8320000   20.1260000  
O 15.4570000    8.6300000   18.5220000  
H 17.2480000    8.9440000   16.6990000  
H 19.5060000   10.4850000   15.7240000  
H 20.8580000   11.6390000   15.1840000  
H 18.5690000   13.9060000   17.9670000  
C 16.6910000   13.2730000   19.8980000  
C 16.0740000   14.4640000   19.4810000  
C 16.0270000   15.5480000   20.2640000  
C 16.6530000   15.6110000   21.5430000  
C 17.2350000   14.4350000   22.0210000  
C 17.3340000   13.3240000   21.1280000  
C 15.3620000   14.8250000   18.2790000  
C 14.9250000   16.0910000   18.4750000  
N 15.3020000   16.5730000   19.7340000  
O 13.7270000   16.1270000   16.3650000  
C 14.1120000   16.8100000   17.4970000  
O 13.6560000   17.9100000   17.6730000  
O 18.0510000   14.4550000   23.2050000  
O 18.1180000   12.2780000   21.4620000  
H 15.1810000   14.3080000   17.3900000  
H 14.3770000   15.5040000   16.2680000  
H 15.2410000   17.5800000   20.1250000  
H 18.0000000   15.3400000   23.5530000  
H 18.0590000   12.2690000   22.4660000  
C 16.8740000   16.8810000   22.2680000  
C 16.2640000   17.0390000   23.5560000  
C 16.4370000   18.2540000   24.2040000  
C 17.1870000   19.3700000   23.6610000  
C 17.7430000   19.1710000   22.3310000  
C 17.6230000   17.9160000   21.6930000  
C 15.4650000   16.2530000   24.3750000  
C 15.2700000   17.0400000   25.5950000  
N 15.9000000   18.2350000   25.4700000  
O 13.7210000   15.5470000   26.7010000  
C 14.4470000   16.6540000   26.8040000  
O 14.3630000   17.3120000   27.8060000  
O 18.4770000   20.1600000   21.7450000  
O 18.1840000   17.7700000   20.4590000  
H 15.0420000   15.2400000   24.2270000  
H 13.9010000   15.2590000   25.7770000  
H 15.8860000   18.9820000   26.0940000  
H 18.4140000   21.0110000   22.3130000  
H 18.4480000   18.6540000   20.1960000  
C 17.4240000   20.6060000   24.4050000  
C 18.6320000   20.8610000   25.1630000  
C 18.7050000   21.9720000   26.0120000  
C 17.6760000   22.8750000   26.1130000  
C 16.4670000   22.6360000   25.4620000  
C 16.3100000   21.4490000   24.6550000  
C 19.8870000   20.1880000   25.1760000  
C 20.7120000   20.9500000   25.9810000  
N 19.9520000   21.9920000   26.5090000  
O 22.6330000   19.5740000   25.5050000  
C 22.1530000   20.6640000   26.1460000  
O 22.8740000   21.3100000   26.9100000  
O 15.4030000   23.4310000   25.6860000  
O 15.0700000   21.3020000   24.0150000  
H 20.0960000   19.3430000   24.5220000  
H 21.8330000   19.0830000   25.2270000  
H 20.2540000   22.6680000   27.1280000  
H 14.8930000   23.1740000   24.9090000  
H 15.1210000   20.5420000   23.3900000  
H 17.8100000   23.7740000   26.7460000  
