76
110 
C  9.7440000   15.4880000   22.4960000  
C  9.1860000   16.8950000   22.6960000  
C 10.0530000   17.9340000   22.7230000  
C 11.4400000   17.8660000   22.6710000  
C 12.1060000   16.6200000   22.4700000  
C 11.2780000   15.3750000   22.2800000  
C  9.7350000   19.3070000   22.9050000  
C 10.9550000   20.0210000   22.9380000  
N 11.9880000   19.0820000   22.7510000  
O  9.9400000   22.1570000   23.3550000  
C 11.0730000   21.4820000   23.1470000  
O 12.1460000   22.0480000   23.1690000  
O 11.7430000   14.3170000   21.9180000  
O  9.0700000   14.5170000   22.4960000  
H  8.1120000   16.9620000   22.7320000  
H  8.8250000   19.7680000   23.1640000  
H  9.3400000   21.4980000   23.2820000  
H 12.9620000   19.2540000   22.9390000  
C 13.5570000   16.6650000   22.2870000  
C 14.4480000   16.2260000   23.2760000  
C 15.8240000   16.1130000   23.0380000  
C 16.4150000   16.3860000   21.8300000  
C 15.5240000   16.8250000   20.7730000  
C 14.1510000   17.0120000   21.0260000  
C 14.1780000   15.5900000   24.5760000  
C 15.4180000   15.2080000   25.0630000  
N 16.3850000   15.4990000   24.0810000  
O 14.6300000   14.2510000   26.9960000  
C 15.7130000   14.5630000   26.3160000  
O 16.7640000   14.2760000   26.7390000  
O 16.0070000   17.2870000   19.5890000  
O 13.2840000   17.4500000   20.0150000  
H 13.2070000   15.4770000   25.0330000  
H 14.0220000   14.3140000   26.2920000  
H 17.3330000   15.2320000   24.2290000  
H 16.9940000   17.1670000   19.7040000  
H 13.8510000   17.4690000   19.2250000  
C 17.8770000   16.2520000   21.5300000  
C 18.4110000   15.2870000   20.6820000  
C 19.7490000   15.1490000   20.5240000  
C 20.7240000   16.0370000   21.0970000  
C 20.1470000   16.9300000   22.0170000  
C 18.8040000   17.0780000   22.1730000  
C 17.8770000   14.2290000   19.8640000  
C 18.8840000   13.4330000   19.3890000  
N 20.0890000   14.0450000   19.8030000  
O 17.5970000   11.9340000   18.1110000  
C 18.7490000   12.2390000   18.5310000  
O 19.6790000   11.4860000   18.3150000  
O 21.0420000   17.6620000   22.7650000  
O 18.4140000   18.0810000   22.9880000  
H 16.8280000   13.9650000   19.7540000  
H 17.0750000   12.7440000   18.2030000  
H 21.0100000   13.8240000   19.4770000  
H 21.8990000   17.4870000   22.2950000  
H 19.1910000   18.6520000   22.9770000  
C 22.2280000   15.8020000   21.1260000  
C 23.1610000   16.8000000   20.6240000  
C 24.4800000   16.5120000   20.4850000  
C 25.0880000   15.4220000   21.0200000  
C 24.2620000   14.5070000   21.6330000  
C 22.8640000   14.6830000   21.7160000  
C 22.9340000   18.0680000   19.8860000  
C 24.1710000   18.5790000   19.5420000  
N 25.1520000   17.5560000   19.8440000  
O 23.2240000   20.5470000   18.5240000  
C 24.3670000   19.8010000   18.7080000  
O 25.4420000   20.2090000   18.2480000  
O 24.7490000   13.3400000   22.1570000  
O 22.0460000   13.6880000   22.1840000  
H 21.9640000   18.5300000   19.6540000  
H 22.6620000   20.1260000   19.1490000  
H 26.1360000   17.6660000   19.7430000  
H 23.9410000   12.7780000   22.3120000  
H 21.0770000   14.0310000   22.1970000  
H 26.1600000   15.2550000   20.9240000  
