76
110 
C 21.6110000   13.1680000   27.0630000  
C 22.8980000   13.9880000   26.9310000  
C 22.9780000   14.8620000   25.8710000  
C 21.9570000   15.1730000   25.0140000  
C 20.7390000   14.5900000   25.0700000  
C 20.3820000   13.5840000   26.1370000  
C 24.0690000   15.7660000   25.6160000  
C 23.6360000   16.5120000   24.4790000  
N 22.3400000   16.1960000   24.1710000  
O 25.6410000   17.7180000   24.2110000  
C 24.4450000   17.3770000   23.6510000  
O 24.1420000   17.7440000   22.5380000  
O 19.2880000   12.9990000   26.2850000  
O 21.5700000   12.1950000   27.8280000  
H 23.6860000   13.8080000   27.6660000  
H 25.0840000   15.7390000   26.0820000  
H 25.8850000   17.2110000   24.9420000  
H 21.7700000   16.4830000   23.3940000  
C 19.8100000   15.1320000   24.0800000  
C 19.4010000   14.4030000   22.9720000  
C 18.5350000   14.8380000   22.0090000  
C 17.7070000   15.9670000   22.2390000  
C 18.0300000   16.7410000   23.4140000  
C 19.1000000   16.3320000   24.2710000  
C 19.9950000   13.1460000   22.4430000  
C 19.3190000   12.8900000   21.2440000  
N 18.4820000   14.0100000   20.8750000  
O 20.0450000   10.5480000   21.1040000  
C 19.3160000   11.5730000   20.5200000  
O 18.7610000   11.4120000   19.4460000  
O 17.3610000   17.9690000   23.6240000  
O 19.3370000   17.2050000   25.3020000  
H 20.7090000   12.4830000   22.9390000  
H 20.3160000   10.8240000   22.0110000  
H 17.9550000   14.0020000   20.0280000  
H 16.6800000   18.0400000   22.9330000  
H 18.7060000   17.9040000   25.1900000  
C 16.6650000   16.2940000   21.2180000  
C 15.3220000   16.2440000   21.6140000  
C 14.3780000   16.7070000   20.7300000  
C 14.6060000   17.3570000   19.5080000  
C 15.9470000   17.4810000   19.1630000  
C 17.0050000   16.9110000   19.9420000  
C 14.6420000   15.8590000   22.7550000  
C 13.2950000   15.9950000   22.5020000  
N 13.1330000   16.6320000   21.2490000  
O 12.4270000   14.9020000   24.4340000  
C 12.1290000   15.4980000   23.2670000  
O 10.9810000   15.7950000   22.9640000  
O 16.3410000   18.1170000   18.0400000  
O 18.3490000   17.1230000   19.6500000  
H 15.0370000   15.2290000   23.5680000  
H 13.4110000   14.6960000   24.4120000  
H 12.2390000   16.9390000   20.8330000  
H 15.5650000   18.6190000   17.6700000  
H 18.8920000   16.6880000   20.2980000  
C 13.5040000   17.9310000   18.6820000  
C 13.2750000   19.3340000   18.5380000  
C 12.3500000   19.8010000   17.5810000  
C 11.4620000   18.9130000   16.9680000  
C 11.7420000   17.5210000   17.0450000  
C 12.7680000   17.0280000   17.8610000  
C 13.9990000   20.4480000   19.0330000  
C 13.5220000   21.5780000   18.3370000  
N 12.5240000   21.1670000   17.4300000  
O 14.6720000   23.2180000   19.6810000  
C 13.8050000   23.0390000   18.6880000  
O 13.2970000   24.0440000   18.2060000  
O 10.8680000   16.6640000   16.4090000  
O 12.9630000   15.7080000   17.8960000  
H 14.6990000   20.4990000   19.8730000  
H 14.9830000   22.3440000   19.9860000  
H 12.0610000   21.7970000   16.7960000  
H 11.1940000   15.7770000   16.7000000  
H 13.5420000   15.4100000   18.6330000  
H 10.6810000   19.2120000   16.3180000  
