76
110 
C 20.6210000   13.5290000   27.8750000  
C 21.3620000   14.6840000   28.3710000  
C 21.1590000   15.9470000   27.8810000  
C 20.2100000   16.2460000   26.8650000  
C 19.5930000   15.2310000   26.1520000  
C 19.7360000   13.8060000   26.6250000  
C 21.9040000   17.1500000   28.1570000  
C 21.2190000   18.1290000   27.4260000  
N 20.2210000   17.5890000   26.6210000  
O 22.6880000   19.9030000   27.9300000  
C 21.5660000   19.5510000   27.2820000  
O 20.8920000   20.3690000   26.6300000  
O 19.2450000   12.9080000   25.9450000  
O 20.7620000   12.4280000   28.4120000  
H 22.0010000   14.5000000   29.1810000  
H 22.7270000   17.3300000   28.7990000  
H 23.0370000   19.0650000   28.1190000  
H 19.7420000   18.0750000   25.8950000  
C 18.9820000   15.7080000   24.9210000  
C 19.6110000   15.4320000   23.6680000  
C 18.9810000   15.6940000   22.5220000  
C 17.7730000   16.4080000   22.3920000  
C 17.2800000   16.8370000   23.6800000  
C 17.7560000   16.3490000   24.9010000  
C 20.6510000   14.5070000   23.3770000  
C 20.5280000   14.1470000   22.0350000  
N 19.5160000   14.9120000   21.5020000  
O 22.2290000   12.5120000   22.0380000  
C 21.3440000   13.1880000   21.2650000  
O 21.1770000   13.0120000   20.0410000  
O 16.0670000   17.5200000   23.6810000  
O 17.0690000   16.5170000   26.1030000  
H 21.2580000   14.0510000   24.1610000  
H 22.0700000   12.7100000   22.9830000  
H 19.1300000   14.9280000   20.5850000  
H 15.8710000   17.7290000   22.7410000  
H 16.2600000   17.0590000   25.8010000  
C 16.9690000   16.6280000   21.1560000  
C 15.6920000   16.0380000   20.9930000  
C 14.9830000   16.1460000   19.8170000  
C 15.4840000   16.7410000   18.6520000  
C 16.7580000   17.4110000   18.8280000  
C 17.4830000   17.3580000   20.0330000  
C 14.8750000   15.2270000   21.7830000  
C 13.6810000   15.0540000   21.1390000  
N 13.8160000   15.5660000   19.8350000  
O 12.8290000   13.6880000   22.8450000  
C 12.5570000   14.1390000   21.6510000  
O 11.6070000   13.8440000   20.9570000  
O 17.3310000   18.0230000   17.7790000  
O 18.6520000   18.0010000   20.1300000  
H 15.0780000   14.8990000   22.7830000  
H 13.8530000   13.7920000   22.8740000  
H 13.0240000   15.7850000   19.1880000  
H 16.7840000   17.7010000   17.0680000  
H 19.0430000   17.8880000   21.0150000  
C 14.7240000   16.8830000   17.3760000  
C 14.2490000   18.1830000   16.8790000  
C 13.4560000   18.2740000   15.7060000  
C 13.0100000   17.1060000   15.0430000  
C 13.4660000   15.8680000   15.4780000  
C 14.3650000   15.7450000   16.5770000  
C 14.5770000   19.5620000   17.2800000  
C 13.6940000   20.3430000   16.5450000  
N 12.9150000   19.5600000   15.6930000  
O 14.6340000   22.4070000   17.4360000  
C 13.7710000   21.8470000   16.5680000  
O 13.1060000   22.5140000   15.8080000  
O 13.1120000   14.7600000   14.7430000  
O 14.8180000   14.5070000   16.9400000  
H 15.2850000   19.9210000   17.9970000  
H 15.2120000   21.6280000   17.7430000  
H 12.2610000   19.9170000   14.9820000  
H 13.6310000   14.0850000   15.1670000  
H 15.2710000   14.5420000   17.8080000  
H 12.2360000   17.2010000   14.2790000  
