76
110 
C 11.6350000   15.2090000   16.9590000  
C 10.4540000   15.3270000   17.7720000  
C 10.4930000   15.7000000   19.1260000  
C 11.6750000   15.9420000   19.7890000  
C 12.8730000   15.7800000   19.2110000  
C 12.9940000   15.6210000   17.7290000  
C  9.4170000   16.0960000   19.9860000  
C  9.9920000   16.6370000   21.1320000  
N 11.3470000   16.4710000   20.9940000  
O  7.9920000   17.2760000   22.0410000  
C  9.2810000   17.2370000   22.3350000  
O  9.7930000   17.5970000   23.3760000  
O 14.0290000   15.6660000   17.0880000  
O 11.7060000   14.8630000   15.7800000  
H  9.5390000   15.1040000   17.3030000  
H  8.3640000   15.9600000   19.7030000  
H  7.9360000   16.9560000   21.1590000  
H 12.0030000   16.7070000   21.6720000  
C 14.0360000   16.1490000   20.0640000  
C 14.5790000   15.0910000   20.8510000  
C 15.7130000   15.1950000   21.5370000  
C 16.5260000   16.3630000   21.4300000  
C 16.0720000   17.4740000   20.6550000  
C 14.7660000   17.3520000   19.9850000  
C 14.0430000   13.7610000   21.1350000  
C 14.7860000   13.2560000   22.1560000  
N 15.9610000   14.0780000   22.3180000  
O 13.4050000   11.4460000   22.6190000  
C 14.5320000   12.0780000   22.9770000  
O 15.2190000   11.7180000   23.9340000  
O 16.6910000   18.6780000   20.6510000  
O 14.2740000   18.4180000   19.2340000  
H 13.1120000   13.2980000   20.6750000  
H 12.9630000   11.9560000   21.8320000  
H 16.5950000   13.9540000   23.0640000  
H 17.5510000   18.6330000   21.0190000  
H 14.6470000   19.2590000   19.6000000  
C 17.8010000   16.3860000   22.2390000  
C 19.0520000   16.4100000   21.6090000  
C 20.1980000   16.6130000   22.2580000  
C 20.3720000   16.6970000   23.6420000  
C 19.1690000   16.7630000   24.3610000  
C 17.9140000   16.5270000   23.6760000  
C 19.4340000   16.0130000   20.3130000  
C 20.8640000   16.0480000   20.2640000  
N 21.3020000   16.3570000   21.5050000  
O 21.0070000   15.5610000   17.9900000  
C 21.7400000   15.7730000   19.1130000  
O 22.9620000   15.8090000   19.0140000  
O 19.2110000   16.9320000   25.7020000  
O 16.7570000   16.6170000   24.3740000  
H 18.8080000   15.6520000   19.5140000  
H 20.1010000   15.7390000   18.2830000  
H 22.2730000   16.6250000   21.7850000  
H 20.1360000   17.0520000   25.9800000  
H 17.0170000   17.0130000   25.2560000  
C 21.7370000   16.8760000   24.2570000  
C 22.5540000   17.9360000   23.8850000  
C 23.7480000   18.2780000   24.4870000  
C 24.3040000   17.4040000   25.3820000  
C 23.4780000   16.3390000   25.7940000  
C 22.2300000   16.0090000   25.2510000  
C 22.2640000   19.0910000   23.0300000  
C 23.2930000   19.9540000   22.9850000  
N 24.1970000   19.4730000   23.9620000  
O 22.4630000   21.4470000   21.1470000  
C 23.4590000   21.2140000   22.0610000  
O 24.3910000   21.9720000   22.1090000  
O 23.8770000   15.5760000   26.8780000  
O 21.5260000   14.9340000   25.7290000  
H 21.3590000   19.1680000   22.5100000  
H 21.7650000   20.7870000   21.3360000  
H 24.9490000   20.0290000   24.2800000  
H 23.2580000   14.8460000   27.0720000  
H 21.1020000   14.3720000   25.0170000  
H 25.2720000   17.5620000   25.8710000  
