76
111 
C 23.7400000   13.3320000   21.2920000  
C 23.7230000   12.3620000   22.3640000  
C 22.6170000   12.1980000   23.1950000  
C 21.4290000   12.9460000   22.9820000  
C 21.2880000   13.9690000   22.0120000  
C 22.4210000   14.1990000   21.0440000  
C 22.3850000   11.2780000   24.2960000  
C 21.0820000   11.6020000   24.7860000  
N 20.5770000   12.6530000   24.0170000  
O 20.9840000   10.0920000   26.6350000  
C 20.4300000   11.0550000   25.9440000  
O 19.4050000   11.4780000   26.3860000  
O 22.3220000   14.9780000   20.0980000  
O 24.6580000   13.4190000   20.5110000  
H 24.5880000   11.7670000   22.5460000  
H 23.1480000   10.6600000   24.7040000  
H 21.5760000    9.6060000   25.9980000  
H 19.6780000   13.1440000   24.0730000  
C 19.9990000   14.6580000   21.8750000  
C 19.5590000   15.6050000   22.8210000  
C 18.3580000   16.2530000   22.6630000  
C 17.5140000   16.1480000   21.5430000  
C 17.8980000   15.1580000   20.6100000  
C 19.1530000   14.5120000   20.7150000  
C 20.0120000   15.9610000   24.1520000  
C 19.1330000   16.8600000   24.6590000  
N 18.1190000   17.0840000   23.7810000  
O 20.2480000   16.9380000   26.7920000  
C 19.2330000   17.4740000   26.0260000  
O 18.5150000   18.3590000   26.4460000  
O 17.2060000   15.0090000   19.4210000  
O 19.4320000   13.6800000   19.6850000  
H 20.8990000   15.5880000   24.6540000  
H 20.5840000   16.1780000   26.2800000  
H 17.3450000   17.6850000   23.9400000  
H 16.7440000   15.8310000   19.2590000  
H 18.6180000   13.8450000   19.1770000  
C 16.3500000   17.0940000   21.4710000  
C 16.2630000   18.0190000   20.3910000  
C 15.1800000   18.8220000   20.1310000  
C 14.0680000   18.9100000   21.0510000  
C 14.1940000   18.0660000   22.1910000  
C 15.3010000   17.2440000   22.4620000  
C 17.3310000   18.3730000   19.4560000  
C 16.8120000   19.4710000   18.7410000  
N 15.4990000   19.7380000   19.1250000  
O 18.6460000   19.5530000   17.3560000  
C 17.4910000   20.2510000   17.7410000  
O 17.2200000   21.4030000   17.4000000  
O 13.2570000   18.1880000   23.1290000  
O 15.2490000   16.3770000   23.5150000  
H 18.2630000   17.8450000   19.3430000  
H 18.5070000   18.6960000   17.8270000  
H 15.0100000   20.6300000   18.9090000  
H 12.6170000   18.9210000   22.9170000  
H 14.4350000   16.5590000   23.9120000  
C 12.9870000   19.8510000   20.7480000  
C 11.6930000   19.3590000   20.4600000  
C 10.5730000   20.1940000   20.2660000  
C 10.6350000   21.5610000   20.2790000  
C 11.9110000   22.0660000   20.6840000  
C 13.0360000   21.2550000   20.9410000  
C 11.2740000   17.9650000   20.2050000  
C  9.9230000   18.0340000   19.9700000  
N  9.4930000   19.4080000   19.9840000  
O  9.5910000   15.7400000   19.7750000  
C  8.9720000   16.9380000   19.7960000  
O  7.7650000   17.0370000   19.6240000  
O 12.0150000   23.3940000   21.0670000  
O 14.1630000   21.7980000   21.5310000  
H 11.7650000   17.1160000   20.5350000  
H 10.5090000   15.8820000   19.9800000  
H  8.5050000   19.6250000   19.9800000  
H 12.9520000   23.5830000   20.9970000  
H 14.8800000   21.0950000   21.5420000  
H  9.7420000   22.1220000   20.1260000  
