76
111 
C 21.7360000   11.1740000   20.0020000  
C 22.1160000   10.7040000   21.3620000  
C 21.5640000   11.3290000   22.4320000  
C 20.5900000   12.3230000   22.3090000  
C 20.2720000   12.9880000   21.1410000  
C 20.7520000   12.3910000   19.8940000  
C 21.6020000   11.0380000   23.8350000  
C 20.6430000   11.8150000   24.4700000  
N 20.1300000   12.6630000   23.5000000  
O 21.2390000   11.2630000   26.6520000  
C 20.4640000   11.9770000   25.8660000  
O 19.6770000   12.7200000   26.3590000  
O 20.3750000   12.7870000   18.8470000  
O 22.1780000   10.7010000   18.9990000  
H 22.7640000    9.8160000   21.4210000  
H 22.3050000   10.3010000   24.3050000  
H 21.5310000   10.5030000   26.1510000  
H 19.4970000   13.4990000   23.6340000  
C 19.2820000   14.1060000   21.1370000  
C 19.7570000   15.3710000   20.9020000  
C 18.9940000   16.4620000   21.0440000  
C 17.6100000   16.3730000   21.3450000  
C 17.1000000   15.0500000   21.4530000  
C 17.9530000   13.8960000   21.4670000  
C 21.0580000   15.8020000   20.5760000  
C 20.9840000   17.1700000   20.6190000  
N 19.7160000   17.5860000   20.9240000  
O 23.2020000   17.4150000   19.9520000  
C 22.1260000   18.0520000   20.4460000  
O 22.2450000   19.2150000   20.7300000  
O 15.7550000   14.8520000   21.6970000  
O 17.4980000   12.5970000   21.7450000  
H 21.8630000   15.1730000   20.2540000  
H 22.8630000   16.5490000   19.7370000  
H 19.3490000   18.5290000   20.8720000  
H 15.4190000   15.7580000   21.6720000  
H 16.5690000   12.6400000   21.5040000  
C 16.6770000   17.5500000   21.4200000  
C 15.6350000   17.6340000   20.4810000  
C 14.7050000   18.6530000   20.5890000  
C 14.6540000   19.6020000   21.5860000  
C 15.7700000   19.6100000   22.4130000  
C 16.7440000   18.5640000   22.3790000  
C 15.3080000   16.8720000   19.3170000  
C 14.1750000   17.4840000   18.7640000  
N 13.7660000   18.4960000   19.6490000  
O 13.9170000   16.0720000   16.8130000  
C 13.5180000   17.2080000   17.4170000  
O 12.6740000   17.8900000   16.8640000  
O 16.0260000   20.6400000   23.3160000  
O 17.8570000   18.6330000   23.1780000  
H 15.8870000   15.9360000   18.9010000  
H 14.5700000   15.7950000   17.4840000  
H 12.9150000   19.0290000   19.5060000  
H 15.2600000   21.2310000   23.2630000  
H 17.7000000   19.4920000   23.6490000  
C 13.4810000   20.5660000   21.6740000  
C 12.5920000   20.3790000   22.6730000  
C 11.6920000   21.3520000   23.0360000  
C 11.6040000   22.5330000   22.3630000  
C 12.4650000   22.8130000   21.2940000  
C 13.4290000   21.8170000   21.0270000  
C 12.4810000   19.2420000   23.5610000  
C 11.4580000   19.5700000   24.4340000  
N 10.9540000   20.8890000   24.1390000  
O 11.7480000   17.4440000   25.7130000  
C 11.0410000   18.6610000   25.5660000  
O 10.2090000   18.9960000   26.3850000  
O 12.3210000   23.9150000   20.5980000  
O 14.3040000   22.1150000   20.0800000  
H 12.9420000   18.2370000   23.5610000  
H 12.3340000   17.4300000   24.8990000  
H 10.1290000   21.3260000   24.5000000  
H 12.8780000   23.8950000   19.7700000  
H 14.8820000   21.3890000   19.8850000  
H 10.8770000   23.2670000   22.5660000  
