76
111 
C 21.1290000   17.2260000   28.0390000  
C 20.0600000   17.6460000   29.0710000  
C 18.7220000   17.6560000   28.7260000  
C 18.3130000   17.2480000   27.4700000  
C 19.1770000   16.8880000   26.4710000  
C 20.6590000   16.8790000   26.6320000  
C 17.5470000   18.0680000   29.3700000  
C 16.4620000   18.0780000   28.4400000  
N 17.0100000   17.5380000   27.3020000  
O 14.9290000   19.0070000   29.8990000  
C 15.0720000   18.4400000   28.7380000  
O 14.1890000   18.4080000   27.9070000  
O 21.4170000   16.6850000   25.6850000  
O 22.3420000   17.1600000   28.2280000  
H 20.3960000   18.0230000   30.0080000  
H 17.5910000   18.3330000   30.3760000  
H 15.8710000   19.0810000   30.1970000  
H 16.5080000   17.4580000   26.3680000  
C 18.6130000   16.7190000   25.1480000  
C 18.1210000   17.8080000   24.4170000  
C 17.6530000   17.7060000   23.1680000  
C 17.6450000   16.4790000   22.4320000  
C 18.0880000   15.3650000   23.1860000  
C 18.4810000   15.4240000   24.5300000  
C 17.9900000   19.2010000   24.8830000  
C 17.2200000   19.7890000   23.8010000  
N 17.1160000   18.8960000   22.7250000  
O 16.9680000   21.9670000   24.9130000  
C 16.6870000   21.1950000   23.8100000  
O 16.0350000   21.6620000   22.8740000  
O 17.9400000   14.0980000   22.7080000  
O 18.9420000   14.3130000   25.1490000  
H 18.4290000   19.6590000   25.7360000  
H 17.5140000   21.3290000   25.4790000  
H 16.5490000   19.0260000   21.9250000  
H 17.5030000   14.0460000   21.8350000  
H 18.3460000   13.6130000   24.8510000  
C 17.0020000   16.3340000   21.0850000  
C 17.8030000   16.0500000   19.9570000  
C 17.1800000   16.0110000   18.7320000  
C 15.8200000   16.2770000   18.4730000  
C 15.0480000   16.4850000   19.6600000  
C 15.5840000   16.4880000   20.9430000  
C 19.2550000   16.0690000   19.6770000  
C 19.4070000   16.1120000   18.3060000  
N 18.0790000   16.1640000   17.7800000  
O 21.6720000   16.1630000   18.2720000  
C 20.5700000   16.1310000   17.4860000  
O 20.5720000   16.1810000   16.2530000  
O 13.6820000   16.7150000   19.4410000  
O 14.7500000   16.4660000   22.0370000  
H 19.9810000   16.1080000   20.4400000  
H 21.4270000   16.2200000   19.1840000  
H 17.7760000   16.2140000   16.8150000  
H 13.5860000   16.5280000   18.4730000  
H 13.8740000   16.1010000   21.7430000  
C 15.2670000   16.2730000   17.0940000  
C 14.5600000   15.1340000   16.5880000  
C 13.9370000   15.2150000   15.3690000  
C 13.9360000   16.3440000   14.5570000  
C 14.5500000   17.5050000   15.0670000  
C 15.2050000   17.4820000   16.3040000  
C 14.3210000   13.8600000   17.1080000  
C 13.4850000   13.1680000   16.2030000  
N 13.2860000   14.0160000   15.1130000  
O 13.5050000   11.1770000   17.4910000  
C 13.0040000   11.7530000   16.3940000  
O 12.2560000   11.1150000   15.7040000  
O 14.4290000   18.6980000   14.3070000  
O 15.6980000   18.6300000   16.9340000  
H 14.8060000   13.4050000   17.9850000  
H 14.1410000   11.8460000   17.8050000  
H 12.8780000   13.7380000   14.2760000  
H 15.2540000   19.0620000   14.1760000  
H 15.6850000   18.4360000   17.8910000  
H 13.3220000   16.3530000   13.6370000  
