76
111 
C 21.0640000   18.2090000   27.8170000  
C 20.3910000   17.5160000   28.9080000  
C 19.3210000   16.7630000   28.6810000  
C 18.6960000   16.6030000   27.4870000  
C 19.2420000   17.0710000   26.3110000  
C 20.5090000   17.8460000   26.3370000  
C 18.6730000   15.9320000   29.5800000  
C 17.6250000   15.2590000   28.9360000  
N 17.7090000   15.7470000   27.6340000  
O 16.7700000   14.0720000   30.7890000  
C 16.6410000   14.2400000   29.4790000  
O 15.8310000   13.6460000   28.7450000  
O 21.1990000   18.1080000   25.3600000  
O 21.9640000   19.0360000   28.0500000  
H 20.7590000   17.7330000   29.9210000  
H 19.0140000   15.9180000   30.6730000  
H 17.5140000   14.6750000   31.0370000  
H 17.0920000   15.4470000   26.8540000  
C 18.4920000   16.7690000   25.1080000  
C 17.9420000   17.8730000   24.4300000  
C 17.2520000   17.6420000   23.2770000  
C 17.0440000   16.3910000   22.6520000  
C 17.5890000   15.2630000   23.3740000  
C 18.3000000   15.4690000   24.5890000  
C 17.8860000   19.2870000   24.6510000  
C 17.2160000   19.7950000   23.5710000  
N 16.6450000   18.7750000   22.8210000  
O 17.6800000   22.1030000   24.0790000  
C 17.0720000   21.2550000   23.2600000  
O 16.4910000   21.7340000   22.3230000  
O 17.3750000   13.9940000   22.8710000  
O 18.8690000   14.4060000   25.2340000  
H 18.2870000   19.8490000   25.4900000  
H 18.1040000   21.6430000   24.8440000  
H 15.9630000   18.7780000   22.0740000  
H 16.7250000   14.1420000   22.1790000  
H 18.7000000   13.6650000   24.6120000  
C 16.4000000   16.2990000   21.2700000  
C 16.8590000   17.0400000   20.2390000  
C 16.2820000   17.1030000   19.0140000  
C 15.0270000   16.5340000   18.6460000  
C 14.4660000   15.7980000   19.7080000  
C 15.1070000   15.7050000   21.0170000  
C 18.0910000   17.8080000   20.0810000  
C 18.1710000   18.2410000   18.7410000  
N 17.0410000   17.8150000   18.0980000  
O 19.9020000   19.6240000   19.1410000  
C 19.1350000   19.1610000   18.1640000  
O 19.2340000   19.5540000   17.0640000  
O 13.1740000   15.3430000   19.5400000  
O 14.4440000   14.9880000   21.9330000  
H 18.8540000   18.0000000   20.8790000  
H 19.5540000   19.1440000   19.9120000  
H 16.7850000   17.8990000   17.0810000  
H 12.9460000   15.5370000   18.5630000  
H 13.6070000   14.7910000   21.5280000  
C 14.4120000   16.5070000   17.2520000  
C 14.5940000   15.4080000   16.3920000  
C 14.1770000   15.4800000   15.0640000  
C 13.5690000   16.6320000   14.5380000  
C 13.3560000   17.7680000   15.4120000  
C 13.7820000   17.6860000   16.7830000  
C 15.2100000   14.1450000   16.4840000  
C 15.1430000   13.4870000   15.3010000  
N 14.4980000   14.3250000   14.3710000  
O 16.3330000   11.4280000   15.9750000  
C 15.7490000   12.2170000   14.9640000  
O 15.7540000   11.7100000   13.8350000  
O 12.7030000   18.8830000   14.9730000  
O 13.6820000   18.7100000   17.6380000  
H 15.6800000   13.7060000   17.3060000  
H 16.2980000   11.8150000   16.8470000  
H 14.2300000   14.1200000   13.4260000  
H 12.3090000   19.3430000   15.7810000  
H 13.9350000   18.3570000   18.5130000  
H 13.2720000   16.6560000   13.4860000  
