76
111 
C 16.8280000   20.3880000   28.1820000  
C 15.4600000   20.9780000   28.2350000  
C 14.4980000   20.5230000   27.4490000  
C 14.6840000   19.4600000   26.5820000  
C 15.9670000   18.9950000   26.2340000  
C 17.1100000   19.4390000   26.9690000  
C 13.1190000   20.7700000   27.4490000  
C 12.4920000   20.0960000   26.4260000  
N 13.4650000   19.2900000   25.8780000  
O 10.2780000   20.8900000   26.7780000  
C 11.1030000   20.1700000   25.9930000  
O 10.6930000   19.6020000   24.9680000  
O 18.2710000   19.2750000   26.7160000  
O 17.8010000   20.7500000   28.9020000  
H 15.2300000   21.6250000   29.0920000  
H 12.6680000   21.4820000   28.0010000  
H 10.7050000   21.2980000   27.5710000  
H 13.3520000   18.4580000   25.2100000  
C 16.0970000   18.2220000   24.9780000  
C 15.9690000   18.9040000   23.8140000  
C 16.2400000   18.1990000   22.6510000  
C 16.5680000   16.8480000   22.5200000  
C 16.5690000   16.1230000   23.7280000  
C 16.3380000   16.7890000   24.9300000  
C 15.7360000   20.2700000   23.4850000  
C 15.9870000   20.2920000   22.1320000  
N 16.2090000   19.0150000   21.5780000  
O 15.7030000   22.7230000   21.8520000  
C 15.8840000   21.4980000   21.2490000  
O 16.0050000   21.4080000   20.0260000  
O 16.7760000   14.7740000   23.7210000  
O 16.3240000   16.0280000   26.0750000  
H 15.4250000   21.1400000   24.1090000  
H 15.5580000   22.5020000   22.8330000  
H 16.3270000   18.7280000   20.5870000  
H 17.2330000   14.6260000   22.8960000  
H 16.3460000   15.1330000   25.7560000  
C 16.8390000   16.2820000   21.1640000  
C 18.1780000   16.1190000   20.7930000  
C 18.4560000   15.4010000   19.6820000  
C 17.4750000   14.9740000   18.7210000  
C 16.1230000   15.1290000   19.0780000  
C 15.7830000   15.8080000   20.3090000  
C 19.4950000   16.3660000   21.3730000  
C 20.4300000   16.0340000   20.4550000  
N 19.7610000   15.4760000   19.3020000  
O 22.4230000   16.4800000   21.7050000  
C 21.8560000   16.0290000   20.6200000  
O 22.5830000   15.5870000   19.7850000  
O 15.2230000   14.5100000   18.2910000  
O 14.4700000   15.9470000   20.7500000  
H 19.7110000   16.7600000   22.3360000  
H 21.6140000   16.8270000   22.1780000  
H 20.2030000   15.3640000   18.4060000  
H 15.7330000   14.0290000   17.5650000  
H 13.8100000   15.6510000   20.1190000  
C 17.8670000   14.2770000   17.4460000  
C 18.3540000   12.9560000   17.4620000  
C 18.6730000   12.3290000   16.2950000  
C 18.6740000   12.9500000   15.0520000  
C 18.1270000   14.2670000   14.9880000  
C 17.7680000   14.9540000   16.1690000  
C 18.5280000   12.0330000   18.5300000  
C 18.9900000   10.8290000   17.9100000  
N 19.1690000   11.0360000   16.5700000  
O 19.1590000    9.5250000   19.8980000  
C 19.3880000    9.5970000   18.5500000  
O 19.9400000    8.7200000   17.9110000  
O 17.9380000   14.9150000   13.7930000  
O 17.2970000   16.2540000   16.1900000  
H 18.3610000   12.1920000   19.5840000  
H 18.8720000   10.3960000   20.0920000  
H 19.6110000   10.3880000   15.8960000  
H 17.3960000   15.7590000   13.8930000  
H 16.9420000   16.5240000   17.0420000  
H 18.8440000   12.3490000   14.1480000  
