76
111 
C 21.7010000   11.7310000   18.4960000  
C 22.1350000   10.8380000   19.6390000  
C 21.6640000   11.1140000   20.8680000  
C 20.7440000   12.1310000   21.1200000  
C 20.1490000   12.9210000   20.1820000  
C 20.5780000   12.8140000   18.8100000  
C 21.8210000   10.3570000   22.0370000  
C 21.1100000   11.0640000   23.0590000  
N 20.3580000   12.0610000   22.4550000  
O 21.6350000    9.6300000   24.9810000  
C 20.8720000   10.6470000   24.5100000  
O 20.1170000   11.2910000   25.2570000  
O 20.1340000   13.5540000   17.9320000  
O 22.1620000   11.6550000   17.3220000  
H 22.9010000   10.0800000   19.4100000  
H 22.4400000    9.4610000   22.1960000  
H 22.2690000    9.4940000   24.2940000  
H 19.5480000   12.5670000   22.8640000  
C 19.1060000   13.9030000   20.6550000  
C 19.3870000   15.2670000   20.7800000  
C 18.4750000   16.1800000   21.1880000  
C 17.1550000   15.8290000   21.4880000  
C 16.9020000   14.4490000   21.4830000  
C 17.8590000   13.4130000   21.0850000  
C 20.6490000   15.9930000   20.5220000  
C 20.3180000   17.3120000   20.7160000  
N 18.9570000   17.5010000   21.1050000  
O 22.4490000   18.0520000   20.3780000  
C 21.1810000   18.4190000   20.4820000  
O 20.7930000   19.5980000   20.3940000  
O 15.6930000   13.9830000   21.9570000  
O 17.5610000   12.0720000   21.0890000  
H 21.6610000   15.6110000   20.2410000  
H 22.4370000   17.1190000   20.5080000  
H 18.5290000   18.3780000   21.5460000  
H 15.2490000   14.7560000   22.3750000  
H 16.6110000   11.9570000   21.2970000  
C 16.1700000   16.8940000   21.8780000  
C 15.0960000   17.1950000   21.0880000  
C 14.3880000   18.3330000   21.2870000  
C 14.8090000   19.4370000   22.1780000  
C 15.8980000   19.0880000   23.0310000  
C 16.5550000   17.8100000   22.9210000  
C 14.4480000   16.6010000   19.8780000  
C 13.4150000   17.4640000   19.4620000  
N 13.3880000   18.5270000   20.3600000  
O 12.7030000   16.2800000   17.4310000  
C 12.5020000   17.3120000   18.3120000  
O 11.5310000   18.0610000   18.1340000  
O 16.3490000   20.0240000   23.8350000  
O 17.7240000   17.5730000   23.5830000  
H 14.6220000   15.6290000   19.2830000  
H 13.5420000   15.8750000   17.7050000  
H 12.7680000   19.3960000   20.3030000  
H 15.6670000   20.6500000   23.8750000  
H 17.8930000   18.2200000   24.2820000  
C 14.0310000   20.6780000   22.3330000  
C 13.3290000   20.9270000   23.4930000  
C 12.6610000   22.1130000   23.6320000  
C 12.5710000   23.1210000   22.6820000  
C 13.3070000   22.9130000   21.5520000  
C 14.0290000   21.7060000   21.3860000  
C 13.1840000   20.1610000   24.7040000  
C 12.3250000   20.8380000   25.5310000  
N 12.0680000   22.1080000   24.9000000  
O 12.3730000   19.1700000   27.3070000  
C 11.8850000   20.3720000   26.8380000  
O 11.1160000   21.0690000   27.4630000  
O 13.3770000   23.8910000   20.5930000  
O 14.8920000   21.5530000   20.3400000  
H 13.4880000   19.1000000   24.7860000  
H 12.8450000   18.7830000   26.5740000  
H 11.4100000   22.7620000   25.1510000  
H 13.6720000   23.5290000   19.7400000  
H 15.4430000   20.7490000   20.4670000  
H 11.9780000   24.0240000   22.8710000  
