76
111 
C 22.6280000   14.9050000   26.5860000  
C 22.0350000   15.3940000   27.8640000  
C 20.7530000   15.8770000   27.9930000  
C 19.8980000   15.8040000   26.9130000  
C 20.2590000   15.4770000   25.6320000  
C 21.6820000   15.1230000   25.3240000  
C 20.0170000   16.3440000   29.1430000  
C 18.7450000   16.5230000   28.6470000  
N 18.6610000   16.1520000   27.3130000  
O 17.8360000   17.0850000   30.7250000  
C 17.5990000   17.0110000   29.4190000  
O 16.4490000   17.2050000   29.0360000  
O 22.2030000   14.8910000   24.2330000  
O 23.7180000   14.4520000   26.4630000  
H 22.7910000   15.2940000   28.7180000  
H 20.4140000   16.4320000   30.1800000  
H 18.8220000   17.0730000   30.7700000  
H 17.8720000   16.0880000   26.7650000  
C 19.2220000   15.5390000   24.5610000  
C 18.5840000   16.7290000   24.2840000  
C 17.6700000   16.8410000   23.2590000  
C 17.3450000   15.7920000   22.3650000  
C 18.0210000   14.5660000   22.5940000  
C 18.9530000   14.5010000   23.6590000  
C 18.7600000   18.0550000   24.7750000  
C 17.7860000   18.8600000   24.2010000  
N 17.1980000   18.1230000   23.1530000  
O 18.3640000   20.8070000   25.4710000  
C 17.6000000   20.2920000   24.4680000  
O 16.8730000   21.0120000   23.7770000  
O 17.8140000   13.4840000   21.7670000  
O 19.7100000   13.3900000   23.7700000  
H 19.5000000   18.4180000   25.4610000  
H 19.0230000   20.1450000   25.7160000  
H 16.5570000   18.4700000   22.4900000  
H 16.9010000   13.5560000   21.3310000  
H 19.4880000   12.8150000   23.0400000  
C 16.3300000   16.0110000   21.2380000  
C 16.5890000   17.0140000   20.2990000  
C 15.7590000   17.3350000   19.3190000  
C 14.5040000   16.6700000   19.0740000  
C 14.2350000   15.6090000   20.0300000  
C 15.0740000   15.3780000   21.1280000  
C 17.7640000   17.8920000   20.0810000  
C 17.4930000   18.6860000   19.0040000  
N 16.2480000   18.3280000   18.5250000  
O 19.6340000   19.7800000   19.0480000  
C 18.3920000   19.7940000   18.5450000  
O 18.1540000   20.6170000   17.6910000  
O 12.9840000   15.0810000   19.9340000  
O 14.6490000   14.4730000   22.0380000  
H 18.6090000   18.0230000   20.7600000  
H 19.8310000   19.0460000   19.6380000  
H 15.7620000   18.5940000   17.6500000  
H 12.5240000   15.3720000   19.1040000  
H 13.7160000   14.1600000   21.8810000  
C 13.4760000   17.0870000   17.9790000  
C 13.4500000   16.4610000   16.7210000  
C 12.6140000   16.8660000   15.7230000  
C 11.7090000   17.9170000   15.9190000  
C 11.6190000   18.4680000   17.1730000  
C 12.5110000   18.0660000   18.2340000  
C 14.2940000   15.4670000   16.0910000  
C 13.9590000   15.3480000   14.7530000  
N 12.7740000   16.0540000   14.6180000  
O 15.7970000   13.9960000   14.1770000  
C 14.6200000   14.4810000   13.7200000  
O 14.2460000   14.2770000   12.5510000  
O 10.4960000   19.3190000   17.2830000  
O 12.2420000   18.5130000   19.5060000  
H 15.2010000   14.9460000   16.5350000  
H 15.9360000   14.1410000   15.1870000  
H 12.3430000   16.1650000   13.7390000  
H 10.6690000   19.7370000   18.0950000  
H 12.9880000   18.1750000   20.0180000  
H 11.0150000   18.2270000   15.1300000  
