76
111 
C 11.2940000   22.0970000   23.1740000  
C 10.2470000   21.2080000   22.6660000  
C 10.5790000   19.9430000   22.1660000  
C 11.8700000   19.4140000   22.2440000  
C 13.0210000   20.0960000   22.6770000  
C 12.7710000   21.5410000   23.1720000  
C  9.7420000   18.9570000   21.5300000  
C 10.5700000   17.9320000   21.2870000  
N 11.8460000   18.1800000   21.7720000  
O  8.7770000   16.3990000   20.6750000  
C 10.0850000   16.5930000   20.8080000  
O 10.9210000   15.7670000   20.5710000  
O 13.6170000   22.3040000   23.5520000  
O 10.9880000   23.2010000   23.5500000  
H  9.2530000   21.5740000   22.6340000  
H  8.7080000   19.0690000   21.3390000  
H  8.4640000   17.2610000   21.0880000  
H 12.5330000   17.4400000   21.9140000  
C 14.3070000   19.4320000   22.7120000  
C 14.9910000   19.3950000   21.5260000  
C 16.0150000   18.5700000   21.3470000  
C 16.5060000   17.6210000   22.2180000  
C 15.7320000   17.6520000   23.4290000  
C 14.7050000   18.5380000   23.7420000  
C 14.7700000   20.0800000   20.2860000  
C 15.7060000   19.6530000   19.3710000  
N 16.5140000   18.7040000   20.0330000  
O 14.5720000   20.6060000   17.5610000  
C 15.6660000   19.9710000   17.9960000  
O 16.5600000   19.6430000   17.2160000  
O 15.9300000   16.6420000   24.3600000  
O 14.0040000   18.5750000   24.8920000  
H 14.1210000   20.8710000   20.1030000  
H 13.9440000   20.5790000   18.3450000  
H 17.2210000   18.0910000   19.5530000  
H 16.7630000   16.1450000   24.2360000  
H 14.4720000   18.0220000   25.6000000  
C 17.5000000   16.6060000   21.8480000  
C 18.7380000   16.4810000   22.5240000  
C 19.6700000   15.6510000   22.0700000  
C 19.5210000   14.8780000   20.9060000  
C 18.2050000   14.8320000   20.3810000  
C 17.1790000   15.6610000   20.8400000  
C 19.2170000   17.1330000   23.7180000  
C 20.5250000   16.6900000   23.8780000  
N 20.8330000   15.7450000   22.8090000  
O 21.0490000   18.2460000   25.6120000  
C 21.4990000   17.1820000   24.9060000  
O 22.5360000   16.5980000   25.1540000  
O 17.9160000   14.0110000   19.3780000  
O 15.9540000   15.6070000   20.1780000  
H 18.7200000   17.9520000   24.2450000  
H 20.3190000   18.4460000   25.0180000  
H 21.7790000   15.3410000   22.5990000  
H 18.7720000   13.6500000   19.1060000  
H 16.0450000   14.8610000   19.5250000  
C 20.6080000   13.9600000   20.4310000  
C 21.1530000   12.8940000   21.2480000  
C 22.1650000   12.0690000   20.8330000  
C 22.7720000   12.2530000   19.5340000  
C 22.3280000   13.3210000   18.7710000  
C 21.1730000   14.0730000   19.1310000  
C 20.8490000   12.4330000   22.6310000  
C 21.6780000   11.3620000   22.9230000  
N 22.5770000   11.2540000   21.8020000  
O 20.7590000   10.8990000   25.0920000  
C 21.5920000   10.4950000   24.0940000  
O 22.3000000    9.5360000   24.2760000  
O 23.0780000   13.6830000   17.6620000  
O 20.7340000   15.0240000   18.1980000  
H 20.0560000   12.7900000   23.2080000  
H 20.2290000   11.7370000   24.8590000  
H 23.3430000   10.6570000   21.6270000  
H 22.6470000   14.4950000   17.1860000  
H 20.0820000   15.6080000   18.6190000  
H 23.6040000   11.6660000   19.2270000  
