76
111 
C 12.5960000   22.3640000   24.9860000  
C 11.4040000   21.5430000   24.8880000  
C 11.3220000   20.3190000   24.3940000  
C 12.4860000   19.6940000   23.9190000  
C 13.7330000   20.2540000   23.9970000  
C 13.8460000   21.6530000   24.4270000  
C 10.2470000   19.4440000   24.0870000  
C 10.7680000   18.2000000   23.6660000  
N 12.1240000   18.4130000   23.6570000  
O  8.6960000   16.8920000   23.3850000  
C 10.0550000   16.8640000   23.3550000  
O 10.6850000   15.8810000   22.9500000  
O 14.8850000   22.2590000   24.4140000  
O 12.5220000   23.5420000   25.4210000  
H 10.5010000   21.9680000   25.2730000  
H  9.2290000   19.6110000   24.3730000  
H  8.5000000   17.8460000   23.5760000  
H 12.8170000   17.6620000   23.5350000  
C 14.8160000   19.4090000   23.4430000  
C 15.4330000   19.7150000   22.2040000  
C 16.2340000   18.8150000   21.6010000  
C 16.6150000   17.5620000   22.2370000  
C 16.1260000   17.3460000   23.5090000  
C 15.2180000   18.1960000   24.0980000  
C 15.2880000   20.8320000   21.2980000  
C 15.9170000   20.5040000   20.1330000  
N 16.6610000   19.3080000   20.3920000  
O 15.2330000   22.3640000   18.9090000  
C 15.9840000   21.2690000   18.8650000  
O 16.8260000   20.9650000   18.0050000  
O 16.4540000   16.1500000   24.0730000  
O 14.6100000   17.8540000   25.2460000  
H 14.8750000   21.7920000   21.5610000  
H 14.8290000   22.2990000   19.7560000  
H 17.0810000   18.8160000   19.6350000  
H 17.1960000   15.8100000   23.5260000  
H 15.1130000   17.1050000   25.5750000  
C 17.5990000   16.5610000   21.5920000  
C 18.8420000   16.2320000   22.1860000  
C 19.7320000   15.3650000   21.6290000  
C 19.4980000   14.7540000   20.3650000  
C 18.2860000   15.1320000   19.7480000  
C 17.3950000   16.0630000   20.3050000  
C 19.3830000   16.5790000   23.4660000  
C 20.4980000   15.8620000   23.7280000  
N 20.7250000   15.0070000   22.6000000  
O 20.8430000   17.0060000   25.8020000  
C 21.3130000   16.0230000   24.9940000  
O 22.2820000   15.3430000   25.2570000  
O 17.9220000   14.6000000   18.5450000  
O 16.2520000   16.3500000   19.6790000  
H 18.9870000   17.3000000   24.1250000  
H 20.1120000   17.4840000   25.3440000  
H 21.5330000   14.3430000   22.4720000  
H 18.4650000   13.8360000   18.4150000  
H 16.3500000   16.0100000   18.7750000  
C 20.4720000   14.0190000   19.5460000  
C 20.3810000   12.6060000   19.4920000  
C 21.2480000   11.8970000   18.6960000  
C 22.2320000   12.4750000   17.8900000  
C 22.2760000   13.8810000   17.8620000  
C 21.3970000   14.6450000   18.6340000  
C 19.4330000   11.6530000   20.0230000  
C 19.7390000   10.3740000   19.5280000  
N 20.8230000   10.5110000   18.6410000  
O 18.1150000    9.2110000   20.8250000  
C 19.1340000    9.0910000   19.9200000  
O 19.5240000    7.9830000   19.5150000  
O 23.2460000   14.4160000   17.1250000  
O 21.4080000   16.0290000   18.5310000  
H 18.6600000   11.8740000   20.7090000  
H 17.9550000   10.2000000   20.9880000  
H 21.2770000    9.7470000   18.1950000  
H 22.9680000   15.2890000   17.0830000  
H 20.8430000   16.2270000   19.2460000  
H 22.9990000   11.9900000   17.2650000  
