76
111 
C 18.1660000   20.5970000   28.4280000  
C 16.8980000   20.3150000   29.1790000  
C 16.0190000   19.3860000   28.6380000  
C 16.0730000   18.9810000   27.2670000  
C 17.1330000   19.2910000   26.4690000  
C 18.2810000   20.1070000   26.8930000  
C 14.8240000   18.7440000   29.1540000  
C 14.2560000   17.9400000   28.2070000  
N 15.1060000   18.0740000   27.0860000  
O 12.4790000   16.9310000   29.4250000  
C 13.1090000   17.0110000   28.2200000  
O 12.7170000   16.4020000   27.2530000  
O 19.2200000   20.3600000   26.1970000  
O 19.0270000   21.2560000   29.0420000  
H 16.8970000   20.6680000   30.2290000  
H 14.3410000   18.9010000   30.1120000  
H 13.0000000   17.5650000   30.0250000  
H 14.9500000   17.6110000   26.2350000  
C 17.0430000   18.6630000   25.1320000  
C 16.9120000   19.3060000   23.9290000  
C 16.8170000   18.6400000   22.7720000  
C 16.9480000   17.2330000   22.5110000  
C 17.2570000   16.5610000   23.7900000  
C 17.2480000   17.2740000   25.0100000  
C 16.7940000   20.7020000   23.6540000  
C 16.6430000   20.7370000   22.2970000  
N 16.7150000   19.4840000   21.7170000  
O 16.3450000   23.1290000   22.3840000  
C 16.3060000   22.0160000   21.5790000  
O 16.0450000   22.0680000   20.3710000  
O 17.4400000   15.1860000   23.8250000  
O 17.3460000   16.5710000   26.1680000  
H 16.9680000   21.4920000   24.3740000  
H 16.3440000   22.6730000   23.2990000  
H 16.2460000   19.3180000   20.8320000  
H 17.5900000   14.9940000   22.8760000  
H 17.4700000   15.6230000   25.8730000  
C 16.9220000   16.5550000   21.1960000  
C 18.0940000   16.0310000   20.5640000  
C 17.9920000   15.4550000   19.3020000  
C 16.8560000   15.2790000   18.5430000  
C 15.6530000   15.7260000   19.2310000  
C 15.6900000   16.3780000   20.4750000  
C 19.4610000   16.0070000   20.9020000  
C 20.1200000   15.4290000   19.7890000  
N 19.2360000   15.1000000   18.8180000  
O 22.3360000   15.4740000   20.7000000  
C 21.5870000   15.1950000   19.6640000  
O 22.1660000   14.8060000   18.7020000  
O 14.4900000   15.6820000   18.5040000  
O 14.5340000   16.9530000   20.9770000  
H 19.9770000   16.4560000   21.7620000  
H 21.7920000   15.9180000   21.3070000  
H 19.4980000   14.7800000   17.9010000  
H 14.7960000   15.4560000   17.5910000  
H 13.7510000   16.7870000   20.4090000  
C 16.9830000   14.7730000   17.1260000  
C 16.5300000   13.5250000   16.6470000  
C 16.5660000   13.2020000   15.3390000  
C 17.0640000   14.0470000   14.3520000  
C 17.5480000   15.2830000   14.7580000  
C 17.5490000   15.6440000   16.1160000  
C 16.0730000   12.3710000   17.3740000  
C 15.8970000   11.3520000   16.3750000  
N 16.0640000   11.9610000   15.1320000  
O 15.4740000    9.8080000   18.0460000  
C 15.6060000    9.9400000   16.7460000  
O 15.4990000    8.9990000   15.9880000  
O 18.0150000   16.0750000   13.7050000  
O 18.0440000   16.8680000   16.4690000  
H 15.9390000   12.3360000   18.4560000  
H 15.7390000   10.6640000   18.3860000  
H 16.0810000   11.4540000   14.2630000  
H 18.2170000   16.9240000   14.0480000  
H 18.0740000   17.0380000   17.4130000  
H 17.1990000   13.5930000   13.3630000  
