76
111 
C 10.0960000   20.2540000   20.8730000  
C  9.6070000   19.6620000   19.6060000  
C 10.4590000   18.7840000   18.9600000  
C 11.7210000   18.4230000   19.4060000  
C 12.2690000   18.8350000   20.5930000  
C 11.5280000   19.8240000   21.3530000  
C 10.3060000   17.9650000   17.7870000  
C 11.4050000   17.1650000   17.5700000  
N 12.3100000   17.4990000   18.6000000  
O 10.5790000   15.7370000   15.8830000  
C 11.5930000   15.9290000   16.7340000  
O 12.5930000   15.2270000   16.8250000  
O 11.9860000   20.1200000   22.4510000  
O  9.4280000   21.0320000   21.5160000  
H  8.6530000   19.9400000   19.2110000  
H  9.2950000   17.7770000   17.3580000  
H  9.9730000   16.5040000   15.9230000  
H 13.1770000   16.9790000   18.7950000  
C 13.4640000   18.1740000   21.0280000  
C 14.6650000   18.6570000   20.5290000  
C 15.8790000   18.0430000   20.8120000  
C 15.9670000   16.8750000   21.5490000  
C 14.7150000   16.3940000   22.1200000  
C 13.4980000   17.0040000   21.8850000  
C 14.9910000   19.7030000   19.5960000  
C 16.3840000   19.5720000   19.3530000  
N 16.9270000   18.5330000   20.0920000  
O 16.3230000   21.3500000   17.9180000  
C 17.1470000   20.4530000   18.4940000  
O 18.3490000   20.4280000   18.2240000  
O 14.6720000   15.3850000   23.0280000  
O 12.2600000   16.4430000   22.2250000  
H 14.3570000   20.4920000   19.2970000  
H 15.6060000   21.2740000   18.4870000  
H 17.8630000   18.1170000   20.0340000  
H 15.5700000   15.1110000   23.2350000  
H 12.4350000   15.5230000   22.4440000  
C 17.2210000   16.1930000   21.8980000  
C 18.1330000   16.7390000   22.8160000  
C 19.2670000   16.0690000   23.1700000  
C 19.8440000   15.0160000   22.4410000  
C 18.9610000   14.5160000   21.4630000  
C 17.6570000   15.0110000   21.1810000  
C 18.0850000   17.8630000   23.6290000  
C 19.2270000   17.9710000   24.3670000  
N 19.9950000   16.8450000   24.0220000  
O 18.7920000   20.0510000   25.3300000  
C 19.6900000   19.0780000   25.2590000  
O 20.7600000   19.2030000   25.8030000  
O 19.4390000   13.5160000   20.6790000  
O 16.8370000   14.4670000   20.2230000  
H 17.2510000   18.5640000   23.7020000  
H 18.0790000   19.6800000   24.7730000  
H 20.9220000   16.5870000   24.4240000  
H 20.3820000   13.4800000   20.8540000  
H 17.3080000   13.8230000   19.6320000  
C 21.2190000   14.5780000   22.6990000  
C 21.5160000   13.9880000   23.9640000  
C 22.7910000   13.4640000   24.1890000  
C 23.8260000   13.6270000   23.2370000  
C 23.5310000   14.1770000   22.0270000  
C 22.2430000   14.6520000   21.7080000  
C 20.8440000   13.7360000   25.2090000  
C 21.6710000   13.0740000   26.0950000  
N 22.8510000   12.7420000   25.3690000  
O 20.1160000   12.7910000   27.9400000  
C 21.3880000   12.5740000   27.5230000  
O 22.1960000   12.0170000   28.2190000  
O 24.4610000   14.0770000   21.0280000  
O 22.0180000   15.2760000   20.5250000  
H 19.8960000   14.1720000   25.5530000  
H 19.7560000   13.4040000   27.3610000  
H 23.6770000   12.2860000   25.7610000  
H 24.0500000   14.3610000   20.1930000  
H 21.5080000   16.0780000   20.7620000  
H 24.7870000   13.1480000   23.4180000  
