76
111 
C 13.0110000   20.4180000   27.3810000  
C 11.9380000   21.0060000   26.5770000  
C 11.8510000   20.7020000   25.2610000  
C 12.8110000   19.9340000   24.5480000  
C 13.9150000   19.3480000   25.1170000  
C 14.1550000   19.5260000   26.6070000  
C 10.9410000   21.1630000   24.2520000  
C 11.3660000   20.6750000   22.9600000  
N 12.4210000   19.7940000   23.2510000  
O  9.7090000   21.7930000   21.6940000  
C 10.7310000   20.9480000   21.6380000  
O 11.1650000   20.5080000   20.5550000  
O 14.9840000   18.9180000   27.2400000  
O 13.0950000   20.7050000   28.5730000  
H 11.0890000   21.5120000   26.9900000  
H 10.1430000   21.8170000   24.6160000  
H  9.6400000   22.0550000   22.6650000  
H 12.9400000   19.1880000   22.6510000  
C 14.7820000   18.5090000   24.2490000  
C 15.3470000   18.9710000   23.0670000  
C 16.0560000   18.1600000   22.2280000  
C 16.1810000   16.7840000   22.4770000  
C 15.4890000   16.2930000   23.5950000  
C 14.8080000   17.1110000   24.5240000  
C 15.4740000   20.3110000   22.5670000  
C 16.3400000   20.2580000   21.4650000  
N 16.6970000   18.9180000   21.2950000  
O 16.3940000   22.6760000   20.8620000  
C 16.8550000   21.3810000   20.5940000  
O 17.6920000   21.1670000   19.7000000  
O 15.6800000   14.9820000   23.9300000  
O 14.3020000   16.5590000   25.6220000  
H 15.1770000   21.2070000   23.1310000  
H 15.7750000   22.6470000   21.6320000  
H 17.3800000   18.5590000   20.5760000  
H 16.5060000   14.7810000   23.4560000  
H 14.4070000   15.6100000   25.4480000  
C 16.8730000   15.8720000   21.5810000  
C 18.2410000   16.1660000   21.2380000  
C 18.9720000   15.3900000   20.3420000  
C 18.4280000   14.2130000   19.7480000  
C 17.0650000   13.9290000   20.0850000  
C 16.2610000   14.7470000   20.9050000  
C 19.2140000   17.0290000   21.7770000  
C 20.4520000   16.7610000   21.2300000  
N 20.2970000   15.7110000   20.3350000  
O 21.6460000   18.5860000   22.3200000  
C 21.7280000   17.4990000   21.4810000  
O 22.8180000   17.1260000   21.0810000  
O 16.5130000   12.7830000   19.4980000  
O 14.9480000   14.3360000   21.1090000  
H 18.9730000   17.8420000   22.4870000  
H 20.7230000   18.5160000   22.4890000  
H 20.9690000   15.4060000   19.6700000  
H 17.3010000   12.2380000   19.1700000  
H 14.6980000   13.6160000   20.4720000  
C 19.1580000   13.3850000   18.7850000  
C 20.3150000   12.6920000   19.1220000  
C 20.9830000   11.9300000   18.1880000  
C 20.5410000   11.8090000   16.8670000  
C 19.4960000   12.5980000   16.4480000  
C 18.7890000   13.3590000   17.4170000  
C 20.9070000   12.4040000   20.4250000  
C 21.8000000   11.3360000   20.2210000  
N 21.8810000   11.0920000   18.8270000  
O 21.9390000   10.9550000   22.4800000  
C 22.5350000   10.6400000   21.3290000  
O 23.4590000    9.8450000   21.1870000  
O 19.1020000   12.5520000   15.1470000  
O 17.7710000   14.2250000   17.0630000  
H 20.8170000   12.9440000   21.3150000  
H 21.1280000   11.4180000   22.2420000  
H 22.4030000   10.3660000   18.3690000  
H 18.5080000   13.2700000   15.0500000  
H 17.4010000   14.5680000   17.9540000  
H 21.0690000   11.1500000   16.0910000  
