76
111 
C 23.3030000   13.5140000   24.2150000  
C 22.9210000   13.0700000   25.6100000  
C 21.6590000   13.2820000   26.0780000  
C 20.6420000   13.7280000   25.2700000  
C 20.7660000   14.2090000   23.9820000  
C 22.0980000   14.0830000   23.3230000  
C 21.0390000   13.0830000   27.3610000  
C 19.7180000   13.5550000   27.3230000  
N 19.5370000   13.9640000   26.0600000  
O 18.9850000   13.3050000   29.6490000  
C 18.6550000   13.6040000   28.3870000  
O 17.5230000   14.0710000   28.1430000  
O 22.2900000   14.3710000   22.1560000  
O 24.4730000   13.5340000   23.9350000  
H 23.7290000   12.7910000   26.2190000  
H 21.5220000   12.8290000   28.2980000  
H 19.8630000   12.9300000   29.6120000  
H 18.6580000   14.3380000   25.7250000  
C 19.6080000   14.9310000   23.4550000  
C 19.6670000   16.2940000   23.2520000  
C 18.7030000   16.9580000   22.6210000  
C 17.5230000   16.3320000   22.1240000  
C 17.4900000   14.9090000   22.1510000  
C 18.5690000   14.2470000   22.8010000  
C 20.7320000   17.2280000   23.4260000  
C 20.2880000   18.4530000   22.9070000  
N 19.0260000   18.2610000   22.3680000  
O 21.9450000   19.9830000   23.7310000  
C 20.9210000   19.8210000   22.8930000  
O 20.5430000   20.7030000   22.1660000  
O 16.4720000   14.1630000   21.6160000  
O 18.6060000   12.9320000   22.7720000  
H 21.7940000   16.9810000   23.6840000  
H 21.9090000   19.2010000   24.2580000  
H 18.4400000   18.9400000   21.8890000  
H 15.7780000   14.8040000   21.5720000  
H 17.8170000   12.6990000   22.2910000  
C 16.5170000   17.1030000   21.3310000  
C 16.3080000   16.7940000   20.0170000  
C 15.3860000   17.4640000   19.2650000  
C 14.6030000   18.5830000   19.7670000  
C 14.8680000   18.9390000   21.1000000  
C 15.8430000   18.2230000   21.8630000  
C 16.7880000   15.7610000   19.1380000  
C 16.1720000   15.9250000   17.8740000  
N 15.2180000   16.9380000   18.0150000  
O 17.2820000   14.0250000   16.7110000  
C 16.3480000   15.0140000   16.6830000  
O 15.7410000   15.0400000   15.6480000  
O 14.2350000   20.0120000   21.6190000  
O 16.0570000   18.5850000   23.1850000  
H 17.6370000   15.0550000   19.3440000  
H 17.5540000   13.9130000   17.6510000  
H 14.7580000   17.4140000   17.1730000  
H 13.5140000   20.3040000   21.0310000  
H 15.4040000   19.2750000   23.4310000  
C 13.6280000   19.2160000   18.8650000  
C 12.2400000   19.1440000   19.2220000  
C 11.2840000   19.6180000   18.4200000  
C 11.5830000   20.2710000   17.1680000  
C 12.9270000   20.3280000   16.7510000  
C 13.9140000   19.7690000   17.6230000  
C 11.6790000   18.5780000   20.4010000  
C 10.2880000   18.6780000   20.2430000  
N 10.0320000   19.4410000   19.0550000  
O  9.7320000   17.5280000   22.2980000  
C  9.3100000   18.2930000   21.2580000  
O  8.1280000   18.6060000   21.1150000  
O 13.2440000   20.7760000   15.5510000  
O 15.2350000   19.9960000   17.3170000  
H 12.1470000   18.1840000   21.2660000  
H 10.7290000   17.5750000   22.2600000  
H  9.1620000   19.8860000   18.8060000  
H 14.2100000   20.5750000   15.3780000  
H 15.8190000   19.3100000   17.7420000  
H 10.8550000   20.7670000   16.5320000  
