76
111 
C 20.0050000   11.2180000   17.6500000  
C 20.7600000   10.4310000   18.5910000  
C 20.7300000   10.7570000   19.8930000  
C 20.1150000   11.9000000   20.4210000  
C 19.3850000   12.7900000   19.6430000  
C 19.3000000   12.5630000   18.2270000  
C 21.4030000   10.1160000   21.0460000  
C 21.0680000   10.8100000   22.2390000  
N 20.3180000   11.8890000   21.7580000  
O 22.1430000    9.3430000   23.8400000  
C 21.4800000   10.4790000   23.6290000  
O 21.2470000   11.1890000   24.5660000  
O 18.7920000   13.3990000   17.4890000  
O 19.8960000   10.8860000   16.4530000  
H 21.3680000    9.6040000   18.1250000  
H 22.1110000    9.3490000   21.0010000  
H 22.0980000    8.9460000   22.9770000  
H 20.1020000   12.7350000   22.2620000  
C 18.7600000   13.9170000   20.2410000  
C 19.2270000   15.1980000   19.9090000  
C 18.6810000   16.3230000   20.4770000  
C 17.4840000   16.3120000   21.2800000  
C 16.9440000   15.0310000   21.5020000  
C 17.5850000   13.8760000   21.0000000  
C 20.3840000   15.5890000   19.1400000  
C 20.5910000   16.9700000   19.4720000  
N 19.5470000   17.4130000   20.2420000  
O 22.7710000   16.8950000   18.6100000  
C 21.8150000   17.6570000   19.1630000  
O 21.9180000   18.8070000   19.4370000  
O 15.7320000   14.9090000   22.1860000  
O 16.9910000   12.6800000   21.3150000  
H 21.0870000   14.9460000   18.6220000  
H 22.3570000   16.0280000   18.4410000  
H 19.3990000   18.3190000   20.6230000  
H 15.5060000   15.8290000   22.5070000  
H 16.4050000   12.7920000   22.1110000  
C 16.7430000   17.5760000   21.7920000  
C 15.5470000   17.9840000   21.1960000  
C 14.7890000   18.9870000   21.6560000  
C 15.1780000   19.8430000   22.6940000  
C 16.3540000   19.4140000   23.3850000  
C 17.1680000   18.2850000   22.9500000  
C 14.7520000   17.4150000   20.1590000  
C 13.5540000   18.1280000   20.0690000  
N 13.6210000   19.1780000   20.9820000  
O 12.5810000   16.5270000   18.5250000  
C 12.3940000   17.6750000   19.2350000  
O 11.3250000   18.2850000   19.3280000  
O 16.7110000   20.1510000   24.5080000  
O 18.2830000   17.8720000   23.6420000  
H 15.2180000   16.6600000   19.4700000  
H 13.4410000   16.0840000   18.7080000  
H 12.8420000   19.7600000   21.1990000  
H 16.0130000   20.7070000   24.8100000  
H 18.4130000   18.5020000   24.3470000  
C 14.3860000   21.0160000   23.1940000  
C 13.6060000   20.8430000   24.2800000  
C 12.7180000   21.8300000   24.6690000  
C 12.5920000   23.1000000   23.9930000  
C 13.3960000   23.2740000   22.8940000  
C 14.2070000   22.1780000   22.3940000  
C 13.5210000   19.7990000   25.4010000  
C 12.5020000   20.2410000   26.2670000  
N 11.9930000   21.4890000   25.8190000  
O 12.5760000   18.2750000   27.6940000  
C 12.1030000   19.5560000   27.5320000  
O 11.4290000   20.1390000   28.4050000  
O 13.4240000   24.4850000   22.2160000  
O 14.9720000   22.4410000   21.2470000  
H 14.0810000   18.8910000   25.5950000  
H 12.9620000   17.9600000   26.9010000  
H 11.3360000   22.1080000   26.1950000  
H 14.0130000   24.3640000   21.4840000  
H 15.6590000   21.7480000   21.1690000  
H 11.9460000   23.8710000   24.3730000  
