76
111 
C 20.4940000   17.2820000   28.5370000  
C 19.3210000   17.0830000   29.3870000  
C 18.1140000   16.8800000   28.7570000  
C 17.9580000   16.8420000   27.3970000  
C 18.9250000   17.1500000   26.4920000  
C 20.3080000   17.3740000   26.9730000  
C 16.7970000   16.5400000   29.2590000  
C 15.9420000   16.3130000   28.2030000  
N 16.7040000   16.4880000   27.0510000  
O 13.9760000   16.0510000   29.4530000  
C 14.4490000   16.0730000   28.1990000  
O 13.7590000   15.8100000   27.2160000  
O 21.2250000   17.6530000   26.2020000  
O 21.6090000   17.4340000   29.0300000  
H 19.5390000   17.1520000   30.4230000  
H 16.5430000   16.6170000   30.2790000  
H 14.7350000   16.1530000   30.0450000  
H 16.3240000   16.4120000   26.1240000  
C 18.5680000   17.0810000   25.0440000  
C 18.5320000   18.2630000   24.3020000  
C 18.2530000   18.1840000   22.9750000  
C 17.7530000   17.0440000   22.2760000  
C 17.6920000   15.8910000   23.0570000  
C 18.1280000   15.8730000   24.4310000  
C 18.6300000   19.6990000   24.6520000  
C 18.5390000   20.3630000   23.3850000  
N 18.2570000   19.4350000   22.3870000  
O 19.0510000   22.4440000   24.2370000  
C 18.7820000   21.7550000   23.1090000  
O 18.7080000   22.3160000   22.0010000  
O 17.1490000   14.7600000   22.5330000  
O 18.1590000   14.6710000   25.1390000  
H 18.9720000   20.1200000   25.5200000  
H 18.8500000   21.8650000   24.9290000  
H 18.0170000   19.6270000   21.3840000  
H 16.7750000   15.2550000   21.7170000  
H 17.6370000   13.9260000   24.7010000  
C 17.1440000   17.1150000   20.9440000  
C 17.8310000   16.3840000   19.9430000  
C 17.3280000   16.2390000   18.6890000  
C 16.1500000   16.8210000   18.2910000  
C 15.4140000   17.5320000   19.2860000  
C 15.8960000   17.6740000   20.6070000  
C 19.0450000   15.6240000   20.0610000  
C 19.1920000   15.0650000   18.7860000  
N 18.0980000   15.3740000   17.9780000  
O 21.2310000   14.1320000   19.3900000  
C 20.3270000   14.1730000   18.3540000  
O 20.4820000   13.7190000   17.2190000  
O 14.2770000   18.1960000   18.8720000  
O 15.1150000   18.3100000   21.5050000  
H 19.6300000   15.5360000   20.9150000  
H 20.8170000   14.6720000   20.0370000  
H 18.0850000   15.0640000   17.0210000  
H 14.0300000   18.0850000   17.9200000  
H 14.3530000   18.7780000   21.0390000  
C 15.5350000   16.5190000   16.9210000  
C 14.2900000   15.7820000   16.6860000  
C 13.8000000   15.5050000   15.4360000  
C 14.4330000   15.8200000   14.2520000  
C 15.6720000   16.4680000   14.4730000  
C 16.1340000   16.9350000   15.7420000  
C 13.4140000   15.1860000   17.6160000  
C 12.3330000   14.5540000   16.9500000  
N 12.5730000   14.7760000   15.5630000  
O 11.4290000   13.9140000   18.9070000  
C 11.2960000   13.7690000   17.6520000  
O 10.3910000   13.1640000   17.1760000  
O 16.3750000   16.7550000   13.2850000  
O 17.1800000   17.8470000   15.8230000  
H 13.4360000   15.4340000   18.6920000  
H 12.1560000   14.5340000   18.8910000  
H 12.0160000   14.3930000   14.7970000  
H 17.2860000   17.0710000   13.5220000  
H 17.3160000   18.0890000   16.7520000  
H 14.1440000   15.4740000   13.3000000  
