76
111 
C 16.6960000   11.4200000   16.3580000  
C 18.0150000   10.7960000   16.3970000  
C 18.9020000   11.2060000   17.3680000  
C 18.6040000   12.2840000   18.2450000  
C 17.3570000   12.8690000   18.3980000  
C 16.3080000   12.4260000   17.4710000  
C 20.1580000   10.6660000   17.7900000  
C 20.6280000   11.4280000   18.8480000  
N 19.6350000   12.4270000   19.1500000  
O 22.7850000   10.3540000   19.2390000  
C 21.8320000   11.3130000   19.6760000  
O 22.0580000   11.9790000   20.6540000  
O 15.1350000   12.8340000   17.3980000  
O 15.9630000   11.1720000   15.4400000  
H 18.2160000    9.9580000   15.7340000  
H 20.7130000    9.8840000   17.2820000  
H 22.4770000   10.1830000   18.3310000  
H 19.5650000   12.9290000   20.0240000  
C 17.1340000   13.9130000   19.4280000  
C 17.1240000   15.2090000   19.0160000  
C 17.1640000   16.2600000   19.9000000  
C 17.2620000   16.0990000   21.3080000  
C 17.3110000   14.7330000   21.7600000  
C 17.2400000   13.6790000   20.8380000  
C 17.0510000   15.7410000   17.6820000  
C 17.2550000   17.1480000   17.8540000  
N 17.2700000   17.4700000   19.2100000  
O 17.2050000   17.7490000   15.5630000  
C 17.4700000   18.1780000   16.8330000  
O 17.8970000   19.3080000   17.0760000  
O 17.2530000   14.5780000   23.1130000  
O 17.2040000   12.4030000   21.3070000  
H 17.1150000   15.2500000   16.7040000  
H 16.6860000   16.9090000   15.7750000  
H 17.4160000   18.3830000   19.5290000  
H 16.7890000   15.3740000   23.4320000  
H 17.3540000   12.4020000   22.2840000  
C 17.2380000   17.2550000   22.2360000  
C 16.0530000   18.0710000   22.2780000  
C 15.9330000   19.0600000   23.2130000  
C 17.0160000   19.4660000   24.0720000  
C 18.1900000   18.6580000   23.9900000  
C 18.3190000   17.6210000   23.0230000  
C 14.7760000   18.0030000   21.5440000  
C 13.9590000   18.9780000   22.1430000  
N 14.6490000   19.6350000   23.1510000  
O 12.0760000   18.6880000   20.7220000  
C 12.6740000   19.5020000   21.6230000  
O 12.1250000   20.5200000   22.0150000  
O 19.2400000   18.8320000   24.8140000  
O 19.5020000   16.8700000   23.0530000  
H 14.5300000   17.4780000   20.6500000  
H 12.7080000   17.9920000   20.7600000  
H 14.3750000   20.4890000   23.6720000  
H 18.8810000   19.3810000   25.5760000  
H 20.0900000   17.4670000   23.4980000  
C 16.9230000   20.4460000   25.2270000  
C 15.8650000   20.3030000   26.1600000  
C 15.6750000   21.0940000   27.2330000  
C 16.5580000   22.1470000   27.4930000  
C 17.5910000   22.4020000   26.5910000  
C 17.7690000   21.5510000   25.4090000  
C 14.9190000   19.2160000   26.2580000  
C 14.1120000   19.4980000   27.3250000  
N 14.6700000   20.6430000   27.9830000  
O 12.8080000   17.5560000   27.2120000  
C 12.9460000   18.7170000   27.7850000  
O 12.2610000   19.1990000   28.7020000  
O 18.3310000   23.5640000   26.8100000  
O 18.7270000   21.8410000   24.5180000  
H 14.8290000   18.3470000   25.5960000  
H 13.4810000   17.4290000   26.4790000  
H 14.4130000   21.0080000   28.9160000  
H 18.8540000   23.6880000   25.9980000  
H 18.7750000   21.1580000   23.8060000  
H 16.4470000   22.7570000   28.4370000  
