76
111 
C 16.7870000   13.3200000   15.3020000  
C 17.7890000   12.2860000   15.2140000  
C 18.5890000   11.9730000   16.3320000  
C 18.5250000   12.7230000   17.5130000  
C 17.6510000   13.7690000   17.7280000  
C 16.6290000   14.0890000   16.6820000  
C 19.6720000   11.0450000   16.5020000  
C 20.1550000   11.2130000   17.8030000  
N 19.4810000   12.3110000   18.4130000  
O 21.7100000    9.4350000   17.8360000  
C 21.2400000   10.4910000   18.5410000  
O 21.6910000   10.8570000   19.6630000  
O 15.8490000   15.0160000   16.7740000  
O 16.0460000   13.4930000   14.3740000  
H 17.8810000   11.8590000   14.2490000  
H 19.9020000   10.1810000   15.7850000  
H 21.2400000    9.2990000   17.0020000  
H 19.6340000   12.7480000   19.3540000  
C 17.6040000   14.5230000   19.0150000  
C 18.4520000   15.6150000   19.3330000  
C 18.4190000   16.2590000   20.5510000  
C 17.4590000   15.9450000   21.4960000  
C 16.5520000   14.9480000   21.2000000  
C 16.6100000   14.1900000   19.9880000  
C 19.4670000   16.2860000   18.6150000  
C 20.0040000   17.3130000   19.4470000  
N 19.3070000   17.2600000   20.6920000  
O 21.2400000   18.3140000   17.6660000  
C 20.9880000   18.2870000   18.9980000  
O 21.3100000   19.1480000   19.7820000  
O 15.6250000   14.6590000   22.1630000  
O 15.6230000   13.2180000   19.8260000  
H 19.7350000   16.0980000   17.5630000  
H 20.7770000   17.5290000   17.2710000  
H 19.2180000   18.0130000   21.3610000  
H 15.8040000   15.0990000   23.0010000  
H 15.1700000   13.3050000   20.7210000  
C 17.2440000   16.7530000   22.8220000  
C 16.8420000   18.0910000   22.7060000  
C 16.2340000   18.6310000   23.7680000  
C 16.1470000   18.0930000   25.0800000  
C 16.7010000   16.8430000   25.2430000  
C 17.1820000   16.1490000   24.0990000  
C 16.7140000   19.0260000   21.5860000  
C 15.9650000   20.0800000   22.0220000  
N 15.7610000   19.8700000   23.4000000  
O 16.3040000   21.3560000   20.0580000  
C 15.6400000   21.2870000   21.2480000  
O 14.9000000   22.1560000   21.6900000  
O 16.8280000   16.3160000   26.4550000  
O 17.7290000   14.9130000   24.2640000  
H 17.1330000   18.9230000   20.5690000  
H 16.8980000   20.6530000   20.2420000  
H 15.1660000   20.5150000   23.9440000  
H 16.5370000   16.8180000   27.2190000  
H 17.4620000   14.5810000   25.1120000  
C 15.6630000   18.9430000   26.2250000  
C 14.3930000   19.5290000   26.2270000  
C 13.9900000   20.2690000   27.2710000  
C 14.7690000   20.5590000   28.4090000  
C 16.0410000   19.9320000   28.4660000  
C 16.5270000   19.1370000   27.4020000  
C 13.3630000   19.3380000   25.3590000  
C 12.3080000   20.0800000   25.7800000  
N 12.7740000   20.7290000   26.9460000  
O 10.9130000   19.3410000   24.0500000  
C 10.9680000   20.1310000   25.1170000  
O  9.9820000   20.7020000   25.6230000  
O 16.8150000   20.2240000   29.5220000  
O 17.8270000   18.7410000   27.5570000  
H 13.2360000   18.6620000   24.4850000  
H 11.7760000   19.0260000   23.8150000  
H 12.2610000   21.3610000   27.5220000  
H 17.7880000   20.0560000   29.2240000  
H 18.1430000   18.1090000   26.8800000  
H 14.3970000   21.2190000   29.2250000  
