76
111 
C 14.6520000   11.3250000   16.7790000  
C 15.9150000   11.1080000   16.0700000  
C 17.0450000   11.8430000   16.2850000  
C 17.0680000   12.8250000   17.2850000  
C 15.9620000   13.1840000   18.0640000  
C 14.6720000   12.5470000   17.8510000  
C 18.3000000   11.9340000   15.6460000  
C 19.1080000   12.8830000   16.3210000  
N 18.3040000   13.3930000   17.3580000  
O 21.1790000   12.4800000   15.1930000  
C 20.5440000   13.2390000   16.1600000  
O 21.1470000   14.0040000   16.9220000  
O 13.6680000   13.0060000   18.3900000  
O 13.6750000   10.6050000   16.6330000  
H 15.8880000   10.3840000   15.3010000  
H 18.4830000   11.3620000   14.7250000  
H 20.4510000   11.9560000   14.8180000  
H 18.5590000   14.1830000   18.0190000  
C 16.2190000   14.2620000   19.0560000  
C 16.5830000   15.5440000   18.7140000  
C 16.7730000   16.4900000   19.6550000  
C 16.8130000   16.3000000   21.0770000  
C 16.3960000   15.0130000   21.4540000  
C 16.0100000   14.0540000   20.4570000  
C 16.7390000   16.1210000   17.4200000  
C 17.1570000   17.4420000   17.6000000  
N 17.1260000   17.7070000   19.0260000  
O 17.4760000   18.0730000   15.3370000  
C 17.4890000   18.4820000   16.6390000  
O 17.7480000   19.6100000   17.0180000  
O 16.3690000   14.6700000   22.8030000  
O 15.3770000   12.9090000   20.8830000  
H 16.5620000   15.6800000   16.4420000  
H 17.2280000   17.1420000   15.3790000  
H 17.1130000   18.6510000   19.5020000  
H 16.6330000   15.5080000   23.2150000  
H 15.4090000   13.0910000   21.8430000  
C 17.3080000   17.2490000   22.1420000  
C 16.3640000   18.0870000   22.7010000  
C 16.6510000   18.8170000   23.8650000  
C 17.8770000   18.8100000   24.5600000  
C 18.8540000   17.9420000   24.0360000  
C 18.5630000   17.1020000   22.9210000  
C 14.9740000   18.3400000   22.4110000  
C 14.5260000   19.2490000   23.3630000  
N 15.5470000   19.4690000   24.3050000  
O 12.3870000   19.3090000   22.2420000  
C 13.1280000   19.7630000   23.2870000  
O 12.5620000   20.4390000   24.1350000  
O 20.1050000   17.8270000   24.5790000  
O 19.3990000   16.1310000   22.4530000  
H 14.3950000   18.0720000   21.5370000  
H 12.9760000   18.7640000   21.7220000  
H 15.5210000   20.1930000   24.9970000  
H 20.2670000   18.4970000   25.2580000  
H 20.2560000   16.2380000   22.8140000  
C 18.1050000   19.6730000   25.7740000  
C 17.4420000   19.3620000   27.0060000  
C 17.6320000   20.0620000   28.1770000  
C 18.4280000   21.1840000   28.1690000  
C 19.0040000   21.5870000   26.9530000  
C 18.9340000   20.7800000   25.8100000  
C 16.4210000   18.3970000   27.2560000  
C 16.0510000   18.5300000   28.6160000  
N 16.8280000   19.6040000   29.1800000  
O 14.5270000   16.7260000   28.6120000  
C 15.1120000   17.6660000   29.3590000  
O 14.7660000   17.9490000   30.5150000  
O 19.8520000   22.6400000   26.9240000  
O 19.7110000   21.1630000   24.7470000  
H 16.0090000   17.6280000   26.6190000  
H 14.9380000   16.6120000   27.7050000  
H 16.8520000   19.9900000   30.1530000  
H 20.4650000   22.6130000   26.1830000  
H 19.4300000   20.6550000   23.9590000  
H 18.5580000   21.7330000   29.0440000  
