76
111 
C 13.9290000   15.9030000   14.8720000  
C 14.4000000   14.5390000   14.4300000  
C 15.1070000   13.7490000   15.2800000  
C 15.4650000   14.0970000   16.5430000  
C 14.9790000   15.2480000   17.1390000  
C 14.1390000   16.2190000   16.3730000  
C 15.7160000   12.4500000   15.0990000  
C 16.5000000   12.2010000   16.2180000  
N 16.2560000   13.1850000   17.1440000  
O 17.5730000   10.3500000   15.2000000  
C 17.4640000   11.1500000   16.2840000  
O 18.1260000   10.9410000   17.2600000  
O 13.7980000   17.2830000   16.8630000  
O 13.4640000   16.7580000   14.1150000  
H 14.2490000   14.2500000   13.3930000  
H 15.6190000   11.9120000   14.2180000  
H 16.7870000   10.6060000   14.6510000  
H 16.7370000   13.3120000   18.0890000  
C 15.4610000   15.5080000   18.4890000  
C 16.8110000   15.7920000   18.8010000  
C 17.2560000   16.1820000   19.9990000  
C 16.3750000   16.2720000   21.1160000  
C 15.0140000   15.9080000   20.9010000  
C 14.5580000   15.5270000   19.6040000  
C 17.9710000   15.8240000   17.9020000  
C 19.1110000   16.1410000   18.7040000  
N 18.6790000   16.2700000   20.0440000  
O 20.6220000   16.4690000   16.7890000  
C 20.4220000   16.5120000   18.1620000  
O 21.3020000   16.7850000   18.9570000  
O 14.1300000   15.7510000   21.9390000  
O 13.2380000   15.2050000   19.4420000  
H 17.9940000   15.7830000   16.8070000  
H 19.7100000   16.1970000   16.4500000  
H 19.1710000   16.5470000   20.8300000  
H 14.5970000   15.6010000   22.7720000  
H 12.9350000   15.1200000   20.3450000  
C 16.8520000   16.5890000   22.4700000  
C 17.0760000   17.9160000   22.8810000  
C 17.5210000   18.2060000   24.1490000  
C 17.6920000   17.2740000   25.1380000  
C 17.3920000   15.9470000   24.7950000  
C 16.9240000   15.5980000   23.4570000  
C 16.9160000   19.1420000   22.1890000  
C 17.2780000   20.1550000   23.0700000  
N 17.6880000   19.5500000   24.3050000  
O 17.2040000   22.0920000   21.6340000  
C 17.4680000   21.6290000   22.8690000  
O 17.7750000   22.3880000   23.7610000  
O 17.6160000   14.9070000   25.6140000  
O 16.7460000   14.2730000   23.1730000  
H 16.5760000   19.3780000   21.2080000  
H 17.4750000   21.2880000   21.1430000  
H 18.1930000   20.0390000   25.0720000  
H 17.9030000   15.3470000   26.4690000  
H 17.3970000   13.7210000   23.7230000  
C 18.2150000   17.6380000   26.4550000  
C 17.5290000   18.4740000   27.3260000  
C 18.0160000   18.7770000   28.5990000  
C 19.1970000   18.2620000   29.1310000  
C 19.9500000   17.4890000   28.1920000  
C 19.4580000   17.2130000   26.8830000  
C 16.2070000   19.0790000   27.2030000  
C 15.9260000   19.7090000   28.4340000  
N 17.0060000   19.5400000   29.2670000  
O 13.7930000   20.6130000   27.9120000  
C 14.7480000   20.5050000   28.8130000  
O 14.5700000   20.9870000   29.9350000  
O 21.1960000   17.1410000   28.5260000  
O 20.2350000   16.3960000   26.0480000  
H 15.5200000   19.0200000   26.2710000  
H 14.0140000   20.0400000   27.2270000  
H 17.1190000   20.0580000   30.1440000  
H 21.5280000   16.7370000   27.7160000  
H 19.7330000   16.1100000   25.2630000  
H 19.5540000   18.3980000   30.0930000  
