76
111 
C 23.1030000   12.5580000   19.7740000  
C 22.8990000   11.4110000   20.6960000  
C 21.8240000   11.5340000   21.6190000  
C 20.8710000   12.5910000   21.6330000  
C 20.8800000   13.6630000   20.7890000  
C 22.0150000   13.7590000   19.7820000  
C 21.2550000   10.5050000   22.4470000  
C 20.0880000   10.9980000   23.0980000  
N 19.8940000   12.2750000   22.5610000  
O 19.6930000    9.0660000   24.2340000  
C 19.2500000   10.3040000   24.0580000  
O 18.2580000   10.7830000   24.6360000  
O 22.0470000   14.6920000   18.9800000  
O 24.1060000   12.5700000   19.0910000  
H 23.6050000   10.6190000   20.7200000  
H 21.6910000    9.5440000   22.6550000  
H 20.4220000    8.8790000   23.6010000  
H 19.1460000   12.8740000   22.8130000  
C 19.8150000   14.6500000   20.8970000  
C 19.7510000   15.3400000   22.1160000  
C 18.8150000   16.3180000   22.3150000  
C 17.7820000   16.6550000   21.3200000  
C 17.8280000   15.9380000   20.1070000  
C 18.7990000   14.9490000   19.9360000  
C 20.4560000   15.1860000   23.3940000  
C 19.8750000   16.0860000   24.2600000  
N 18.9210000   16.8410000   23.5450000  
O 21.2420000   15.6490000   26.2120000  
C 20.1910000   16.3280000   25.7040000  
O 19.6210000   17.1260000   26.4150000  
O 16.9340000   16.1810000   19.1290000  
O 18.9700000   14.3080000   18.7450000  
H 21.1990000   14.4190000   23.5620000  
H 21.4640000   14.8870000   25.6460000  
H 18.3170000   17.4820000   24.0010000  
H 16.3870000   16.9070000   19.4810000  
H 18.1400000   14.2240000   18.2370000  
C 16.7560000   17.7510000   21.5890000  
C 16.5110000   18.7650000   20.6130000  
C 15.4370000   19.5800000   20.7820000  
C 14.6570000   19.5650000   21.9300000  
C 14.9720000   18.6050000   22.9420000  
C 15.9140000   17.6180000   22.6860000  
C 17.2450000   19.2000000   19.4190000  
C 16.4080000   20.1830000   18.8130000  
N 15.2970000   20.4400000   19.6810000  
O 17.7200000   20.7340000   16.9200000  
C 16.5480000   20.9540000   17.5470000  
O 15.7180000   21.6930000   17.0690000  
O 14.2190000   18.5670000   24.0500000  
O 15.9540000   16.5330000   23.5240000  
H 18.2560000   18.9070000   19.1760000  
H 18.1940000   20.1330000   17.4420000  
H 14.5040000   20.9990000   19.4460000  
H 13.3730000   19.0500000   23.8660000  
H 15.1130000   16.4870000   24.0740000  
C 13.3400000   20.3790000   21.9810000  
C 12.2020000   19.6540000   22.0020000  
C 10.9470000   20.2570000   21.9980000  
C 10.8160000   21.5960000   22.2860000  
C 12.0150000   22.3770000   22.3420000  
C 13.2630000   21.8010000   22.2290000  
C 11.9170000   18.2200000   22.0000000  
C 10.5480000   18.0260000   22.0420000  
N  9.9620000   19.3000000   21.9730000  
O 10.4370000   15.7330000   22.5560000  
C  9.7600000   16.8210000   22.2760000  
O  8.5500000   16.8190000   22.2380000  
O 11.8720000   23.7260000   22.6150000  
O 14.4130000   22.4890000   22.4830000  
H 12.6000000   17.4280000   22.1470000  
H 11.3500000   15.8590000   22.3930000  
H  8.9490000   19.3880000   22.1050000  
H 12.7210000   24.1900000   22.8720000  
H 15.0630000   21.7940000   22.2900000  
H  9.8340000   22.0860000   22.3600000  
