76
111 
C 10.4490000   18.8310000   18.3280000  
C 10.4200000   17.7870000   17.2990000  
C 11.3830000   16.8300000   17.2060000  
C 12.3960000   16.8470000   18.1450000  
C 12.6010000   17.8280000   19.1030000  
C 11.6750000   18.9610000   19.2680000  
C 11.4830000   15.6120000   16.3900000  
C 12.6030000   14.9110000   16.8500000  
N 13.1450000   15.7300000   17.8220000  
O 12.5520000   12.9650000   15.4380000  
C 13.1590000   13.6390000   16.4310000  
O 14.1480000   13.1640000   16.8840000  
O 11.8580000   19.8700000   20.0600000  
O  9.5750000   19.6680000   18.4340000  
H  9.5410000   17.7770000   16.7370000  
H 10.7760000   15.3310000   15.5960000  
H 11.6200000   13.3280000   15.4250000  
H 14.0550000   15.6000000   18.2720000  
C 13.8020000   17.5970000   19.8980000  
C 15.0850000   17.7670000   19.3850000  
C 16.1710000   17.5110000   20.1860000  
C 16.0770000   17.1370000   21.4840000  
C 14.8260000   17.0930000   22.0760000  
C 13.6610000   17.2910000   21.2710000  
C 15.5880000   17.9750000   18.0450000  
C 16.9380000   17.7220000   18.0800000  
N 17.3150000   17.4240000   19.4160000  
O 17.0690000   17.9340000   15.7020000  
C 17.7780000   17.8390000   16.8620000  
O 18.9530000   17.8200000   16.8960000  
O 14.7510000   16.7930000   23.4290000  
O 12.3880000   17.2040000   21.7560000  
H 15.0510000   18.2320000   17.0550000  
H 16.1610000   17.7700000   15.9490000  
H 18.2700000   17.4020000   19.8380000  
H 15.6800000   16.8530000   23.7760000  
H 12.3540000   16.9330000   22.7170000  
C 17.2920000   16.7430000   22.2380000  
C 18.3200000   17.7030000   22.5250000  
C 19.3570000   17.3540000   23.2840000  
C 19.5770000   16.0270000   23.7640000  
C 18.5640000   15.0730000   23.4800000  
C 17.4640000   15.4280000   22.6800000  
C 18.4780000   19.1340000   22.2430000  
C 19.6540000   19.5190000   22.7960000  
N 20.1360000   18.4570000   23.4790000  
O 19.4940000   21.7980000   22.0370000  
C 20.3030000   20.8740000   22.7000000  
O 21.3210000   21.2090000   23.2270000  
O 18.6610000   13.7800000   23.9240000  
O 16.5250000   14.5110000   22.4890000  
H 17.8000000   19.6180000   21.5090000  
H 18.7820000   21.2320000   21.6710000  
H 20.8970000   18.5560000   24.1700000  
H 19.3940000   13.5660000   24.5230000  
H 16.9440000   13.6080000   22.6730000  
C 20.7400000   15.6440000   24.6770000  
C 20.4720000   15.2840000   25.9990000  
C 21.4480000   14.8940000   26.8440000  
C 22.7780000   14.6950000   26.4690000  
C 23.0810000   14.9960000   25.1180000  
C 22.0650000   15.5100000   24.2830000  
C 19.2780000   15.2460000   26.8660000  
C 19.6870000   15.0320000   28.2030000  
N 20.9900000   14.7960000   28.1960000  
O 17.5000000   14.9750000   29.1090000  
C 18.8280000   14.8920000   29.3840000  
O 19.2280000   14.7040000   30.5520000  
O 24.4000000   14.8470000   24.7000000  
O 22.3480000   15.8730000   23.0230000  
H 18.2210000   15.5120000   26.5680000  
H 17.5190000   15.0010000   28.1500000  
H 21.5740000   14.5990000   28.9870000  
H 24.2820000   14.5570000   23.8350000  
H 21.5670000   16.2060000   22.5260000  
H 23.5170000   14.4460000   27.2290000  
