76
111 
C 11.3940000   19.4990000   17.6560000  
C 11.1240000   18.5070000   16.5820000  
C 11.7390000   17.3240000   16.5460000  
C 12.7810000   17.0240000   17.3950000  
C 13.0830000   17.7310000   18.5370000  
C 12.5010000   19.1010000   18.7270000  
C 11.6180000   16.2340000   15.6680000  
C 12.4700000   15.2160000   16.0990000  
N 13.2180000   15.7360000   17.1660000  
O 11.9380000   13.6160000   14.4290000  
C 12.6930000   13.8600000   15.4990000  
O 13.5220000   13.0110000   15.8760000  
O 12.7380000   19.7490000   19.6970000  
O 10.7850000   20.5720000   17.8530000  
H 10.3970000   18.7740000   15.8370000  
H 10.9190000   16.1660000   14.8540000  
H 11.4180000   14.4280000   14.3330000  
H 13.8900000   15.2500000   17.7210000  
C 14.1180000   17.2020000   19.4020000  
C 15.4490000   17.0170000   19.0130000  
C 16.4030000   16.5590000   19.9000000  
C 16.0840000   16.1850000   21.2150000  
C 14.7590000   16.2980000   21.6300000  
C 13.8180000   16.7700000   20.7240000  
C 16.2060000   17.5740000   17.8990000  
C 17.5860000   17.6620000   18.3190000  
N 17.7160000   17.0390000   19.5720000  
O 18.4280000   18.6780000   16.2980000  
C 18.7250000   18.2060000   17.5140000  
O 19.8770000   18.2660000   17.9760000  
O 14.4780000   15.9350000   22.9040000  
O 12.5140000   16.7410000   21.0710000  
H 15.7310000   17.9100000   17.0340000  
H 17.4240000   18.5890000   16.2070000  
H 18.5560000   17.0550000   20.1820000  
H 15.3690000   15.8270000   23.3590000  
H 12.3850000   16.6230000   22.0380000  
C 17.1920000   15.9810000   22.2730000  
C 17.6490000   17.1110000   23.0090000  
C 18.7400000   17.0610000   23.8240000  
C 19.5940000   15.9010000   23.9180000  
C 19.1830000   14.7760000   23.1900000  
C 18.0030000   14.8440000   22.3660000  
C 17.0380000   18.4500000   23.1910000  
C 17.7710000   19.0600000   24.1490000  
N 18.8530000   18.2650000   24.6140000  
O 16.4720000   20.9500000   24.2600000  
C 17.5540000   20.3750000   24.7410000  
O 18.2470000   20.8740000   25.6090000  
O 20.0500000   13.7210000   23.2190000  
O 17.5460000   13.6000000   21.8750000  
H 16.1060000   18.8320000   22.7410000  
H 16.1770000   20.3090000   23.5540000  
H 19.6230000   18.5960000   25.1670000  
H 20.7530000   13.8630000   23.9060000  
H 18.1790000   12.8240000   22.0150000  
C 20.7830000   16.0000000   24.8240000  
C 20.7040000   15.3220000   26.0810000  
C 21.7630000   15.4840000   26.9940000  
C 22.8640000   16.2410000   26.7370000  
C 23.0090000   16.8170000   25.4520000  
C 21.9590000   16.7340000   24.5020000  
C 19.5700000   14.7500000   26.7630000  
C 19.9670000   14.5930000   28.1160000  
N 21.2600000   15.0910000   28.2150000  
O 17.8230000   13.7060000   28.9250000  
C 19.0990000   14.0960000   29.1990000  
O 19.4720000   14.0600000   30.3240000  
O 24.1310000   17.5290000   25.1230000  
O 22.0950000   17.3340000   23.3150000  
H 18.6890000   14.3610000   26.3210000  
H 17.7020000   13.7950000   27.9470000  
H 21.7190000   15.1250000   29.1170000  
H 23.9460000   18.0700000   24.3270000  
H 21.2840000   17.4490000   22.8910000  
H 23.6130000   16.4750000   27.4910000  
