76
111 
C 10.4730000   20.8270000   20.9250000  
C  9.9050000   20.1350000   19.7320000  
C 10.4340000   18.9530000   19.2880000  
C 11.4850000   18.3440000   19.8690000  
C 12.1730000   18.8080000   20.9580000  
C 11.7220000   20.0170000   21.6850000  
C 10.0370000   18.1870000   18.1550000  
C 10.9750000   17.1600000   17.9860000  
N 11.8340000   17.3130000   19.0360000  
O 10.2360000   16.2000000   15.9170000  
C 11.0470000   16.0610000   17.0130000  
O 11.7360000   15.0290000   17.1940000  
O 12.2130000   20.3790000   22.7180000  
O 10.0470000   21.9480000   21.2750000  
H  9.1150000   20.6530000   19.2250000  
H  9.1470000   18.4370000   17.5360000  
H  9.9680000   17.0680000   15.9280000  
H 12.6450000   16.7550000   19.1850000  
C 13.4170000   18.0940000   21.3150000  
C 14.5300000   18.1400000   20.5590000  
C 15.6680000   17.6280000   21.0330000  
C 15.8340000   16.9910000   22.3330000  
C 14.6440000   16.9130000   23.0930000  
C 13.4410000   17.4170000   22.5560000  
C 14.8420000   18.8280000   19.2910000  
C 16.1940000   18.6460000   19.0190000  
N 16.7380000   17.8510000   20.0920000  
O 16.1850000   19.6870000   16.9140000  
C 16.9220000   19.1520000   17.8470000  
O 18.1930000   19.0970000   17.7540000  
O 14.6020000   16.2100000   24.3110000  
O 12.3170000   17.2240000   23.2590000  
H 14.1460000   19.3860000   18.6770000  
H 15.2310000   19.8050000   17.2180000  
H 17.7510000   17.6530000   20.1900000  
H 15.3270000   15.5670000   24.3320000  
H 12.4980000   16.5360000   23.8720000  
C 17.0720000   16.2400000   22.6070000  
C 18.3240000   16.9240000   22.5830000  
C 19.5450000   16.3080000   22.6360000  
C 19.6550000   14.9120000   22.7510000  
C 18.5080000   14.1800000   22.6270000  
C 17.2340000   14.8260000   22.4290000  
C 18.6480000   18.3450000   22.7500000  
C 19.9990000   18.4370000   22.9380000  
N 20.5740000   17.1850000   22.8070000  
O 19.9800000   20.8360000   23.5000000  
C 20.7530000   19.7110000   23.3010000  
O 21.9720000   19.7310000   23.5370000  
O 18.5090000   12.8240000   22.5260000  
O 16.1300000   14.0240000   22.1780000  
H 17.8740000   19.0740000   22.7700000  
H 19.0680000   20.5790000   23.3410000  
H 21.5760000   17.0940000   22.7320000  
H 19.4440000   12.4980000   22.5730000  
H 16.4650000   13.1490000   22.1330000  
C 20.9470000   14.2820000   22.7250000  
C 21.6300000   14.0230000   23.9050000  
C 22.8230000   13.3910000   23.8790000  
C 23.4680000   13.0760000   22.6780000  
C 22.8690000   13.4050000   21.4490000  
C 21.6300000   14.1140000   21.4910000  
C 21.2060000   14.1140000   25.2330000  
C 22.1690000   13.4960000   26.0290000  
N 23.2020000   13.1430000   25.2080000  
O 21.1970000   14.0160000   28.1010000  
C 22.2090000   13.4040000   27.4600000  
O 23.0510000   12.8360000   28.0850000  
O 23.5050000   13.1740000   20.3130000  
O 21.0780000   14.4710000   20.3140000  
H 20.3410000   14.5790000   25.6090000  
H 20.7050000   14.3230000   27.3020000  
H 24.1190000   12.7260000   25.6220000  
H 23.0800000   13.7630000   19.6500000  
H 20.1300000   14.5250000   20.4620000  
H 24.4120000   12.5060000   22.6590000  
