76
111 
C 23.0930000   12.3460000   20.9630000  
C 23.3000000   11.7660000   22.3020000  
C 22.3300000   12.1880000   23.2290000  
C 21.2260000   13.0590000   22.9710000  
C 20.9650000   13.6700000   21.7660000  
C 21.8740000   13.2660000   20.6390000  
C 22.3460000   11.9320000   24.6360000  
C 21.2650000   12.6680000   25.1840000  
N 20.6550000   13.3300000   24.1740000  
O 21.5850000   11.9230000   27.3950000  
C 20.8570000   12.7210000   26.5990000  
O 20.0090000   13.4960000   27.0360000  
O 21.5690000   13.6740000   19.5080000  
O 23.8720000   12.0400000   20.1280000  
H 24.2400000   11.2790000   22.4850000  
H 23.1690000   11.3490000   25.0810000  
H 22.0570000   11.2940000   26.7790000  
H 19.9310000   13.9680000   24.2340000  
C 19.8990000   14.6050000   21.7250000  
C 19.9840000   15.8720000   22.3200000  
C 18.9150000   16.6730000   22.3180000  
C 17.6490000   16.4720000   21.6970000  
C 17.6300000   15.1800000   21.0430000  
C 18.7200000   14.3060000   21.0880000  
C 21.1080000   16.5750000   22.9580000  
C 20.6100000   17.7920000   23.3530000  
N 19.2750000   17.8610000   22.9120000  
O 22.5640000   18.6970000   24.5580000  
C 21.3860000   18.9740000   23.9570000  
O 20.9040000   20.0920000   23.9420000  
O 16.5060000   14.7670000   20.4180000  
O 18.7170000   13.1680000   20.4100000  
H 22.0720000   16.1580000   23.2180000  
H 22.6090000   17.7020000   24.5610000  
H 18.6160000   18.6210000   23.0620000  
H 15.9360000   15.6350000   20.3920000  
H 17.9190000   13.2480000   19.8690000  
C 16.4850000   17.4260000   21.6120000  
C 15.8590000   17.7420000   20.3420000  
C 14.8280000   18.5880000   20.2270000  
C 14.2080000   19.1690000   21.3100000  
C 14.8560000   18.8850000   22.5840000  
C 16.0270000   18.1010000   22.7110000  
C 16.1520000   17.3540000   19.0120000  
C 15.2330000   17.9540000   18.2200000  
N 14.3890000   18.7240000   19.0010000  
O 16.2470000   17.3270000   16.1370000  
C 15.1450000   17.8750000   16.7410000  
O 14.1720000   18.3450000   16.2010000  
O 14.2430000   19.4810000   23.6460000  
O 16.5590000   17.8220000   23.9440000  
H 17.0270000   16.8560000   18.6460000  
H 16.9940000   17.2630000   16.7450000  
H 13.5120000   19.0560000   18.6250000  
H 13.4020000   19.8400000   23.3220000  
H 16.0730000   18.4420000   24.5570000  
C 12.9630000   19.9750000   21.1910000  
C 11.7700000   19.2120000   21.0870000  
C 10.5370000   19.8470000   21.1090000  
C 10.4040000   21.2110000   21.3860000  
C 11.5750000   21.9840000   21.4570000  
C 12.8420000   21.3510000   21.5310000  
C 11.5350000   17.8080000   20.9660000  
C 10.1450000   17.6740000   20.8990000  
N  9.5340000   18.9270000   20.9370000  
O 10.2550000   15.2500000   20.6320000  
C  9.4400000   16.3430000   20.6840000  
O  8.2620000   16.2480000   20.5010000  
O 11.5340000   23.3420000   21.4580000  
O 14.0240000   21.9930000   21.8290000  
H 12.2700000   17.0160000   20.7230000  
H 11.1610000   15.5800000   20.7890000  
H  8.5790000   19.1200000   20.7150000  
H 12.4700000   23.7870000   21.6510000  
H 14.7340000   21.3100000   21.8330000  
H  9.4200000   21.6320000   21.5160000  
