76
111 
C 11.9020000   21.6650000   23.1570000  
C 10.5480000   21.2860000   22.6740000  
C 10.4410000   20.1340000   21.9530000  
C 11.4710000   19.2200000   21.7280000  
C 12.7930000   19.4090000   22.0990000  
C 13.1150000   20.6400000   22.9100000  
C  9.2140000   19.5900000   21.4270000  
C  9.5830000   18.3320000   20.7980000  
N 10.9790000   18.1470000   21.0000000  
O  7.4170000   17.6220000   20.0190000  
C  8.7330000   17.3830000   20.1710000  
O  9.1560000   16.3070000   19.7780000  
O 14.1800000   20.8580000   23.4720000  
O 12.0880000   22.6630000   23.8030000  
H  9.7810000   22.0080000   22.8150000  
H  8.2240000   20.0350000   21.4490000  
H  7.3510000   18.5340000   20.4480000  
H 11.3890000   17.2400000   20.7120000  
C 13.7680000   18.3510000   21.7100000  
C 14.7710000   18.5460000   20.7450000  
C 15.7720000   17.6750000   20.4690000  
C 15.9430000   16.5190000   21.2180000  
C 14.8480000   16.1500000   22.0320000  
C 13.7740000   17.0160000   22.2360000  
C 15.0340000   19.8240000   20.1540000  
C 16.2530000   19.5940000   19.5160000  
N 16.6690000   18.2790000   19.6780000  
O 16.3990000   21.8490000   18.6710000  
C 16.8550000   20.5800000   18.6200000  
O 17.7550000   20.2240000   17.8520000  
O 14.8910000   14.9820000   22.7110000  
O 12.7820000   16.6490000   23.0960000  
H 14.3940000   20.6900000   20.0920000  
H 15.8380000   21.8500000   19.5400000  
H 17.5230000   17.8500000   19.5270000  
H 15.3740000   14.3290000   22.1230000  
H 12.7680000   15.6440000   23.1960000  
C 17.2060000   15.8200000   21.0940000  
C 18.2620000   16.2530000   21.8680000  
C 19.4540000   15.6370000   21.8250000  
C 19.7560000   14.4720000   21.0690000  
C 18.6530000   13.9220000   20.4240000  
C 17.3830000   14.5250000   20.4420000  
C 18.4700000   17.3970000   22.7650000  
C 19.8450000   17.4930000   23.0060000  
N 20.4290000   16.3570000   22.5120000  
O 19.8130000   19.5700000   24.0270000  
C 20.6220000   18.5670000   23.6130000  
O 21.8170000   18.6180000   23.8390000  
O 18.8830000   12.7210000   19.6980000  
O 16.4020000   13.8690000   19.6920000  
H 17.7520000   18.1910000   22.9700000  
H 18.8830000   19.4630000   23.8210000  
H 21.4060000   16.1760000   22.5570000  
H 19.8800000   12.4740000   19.7980000  
H 16.7510000   12.9330000   19.5630000  
C 21.1440000   13.7950000   21.1650000  
C 21.6740000   13.4150000   22.4720000  
C 22.9120000   12.8050000   22.5690000  
C 23.7680000   12.6170000   21.4530000  
C 23.2860000   13.0520000   20.2230000  
C 21.9950000   13.6270000   20.0280000  
C 21.0730000   13.3860000   23.8210000  
C 22.0110000   12.7850000   24.6880000  
N 23.1250000   12.4400000   23.8740000  
O 20.6580000   12.8300000   26.6370000  
C 21.8470000   12.4160000   26.0880000  
O 22.6970000   11.6920000   26.6080000  
O 24.1800000   13.0340000   19.1410000  
O 21.6440000   14.1170000   18.8110000  
H 20.0910000   13.5640000   24.1720000  
H 20.2020000   13.3600000   25.9650000  
H 24.0040000   11.9910000   24.1050000  
H 23.8390000   13.4520000   18.3080000  
H 20.9780000   14.7860000   18.9010000  
H 24.7800000   12.2840000   21.5710000  
