76
111 
C 11.0780000   20.0530000   18.1570000  
C 10.4590000   18.9170000   17.4130000  
C 10.8340000   17.6400000   17.7100000  
C 11.9660000   17.3020000   18.5010000  
C 12.6580000   18.2090000   19.1740000  
C 12.1410000   19.6250000   19.1090000  
C 10.4270000   16.4300000   17.0680000  
C 11.2070000   15.3820000   17.5900000  
N 12.0850000   15.9560000   18.5150000  
O 10.3710000   13.5040000   16.3360000  
C 11.3300000   13.9920000   17.1890000  
O 12.1590000   13.2730000   17.6960000  
O 12.5880000   20.5700000   19.7560000  
O 10.7340000   21.2310000   17.9840000  
H  9.6830000   19.1890000   16.7420000  
H  9.7000000   16.3040000   16.2040000  
H  9.7060000   14.2570000   16.2350000  
H 12.8430000   15.5490000   19.0130000  
C 13.7180000   17.7050000   19.9690000  
C 14.9930000   17.9070000   19.5860000  
C 16.0370000   17.5300000   20.3840000  
C 15.8860000   17.1410000   21.7270000  
C 14.5320000   16.9150000   22.1230000  
C 13.4180000   17.2450000   21.2760000  
C 15.6240000   18.3260000   18.4180000  
C 16.9890000   18.2360000   18.6170000  
N 17.2400000   17.6590000   19.8290000  
O 17.5790000   18.9780000   16.3770000  
C 18.0860000   18.4380000   17.5560000  
O 19.2520000   18.1880000   17.6930000  
O 14.2880000   16.4250000   23.4040000  
O 12.1340000   17.1060000   21.6630000  
H 15.1580000   18.5060000   17.4460000  
H 16.6500000   19.3100000   16.4800000  
H 18.1660000   17.3230000   20.1370000  
H 15.0510000   15.9270000   23.7870000  
H 12.2230000   16.7400000   22.6010000  
C 17.0210000   16.6120000   22.5530000  
C 17.9740000   17.4910000   23.0090000  
C 19.1200000   17.0220000   23.5710000  
C 19.4550000   15.6340000   23.6750000  
C 18.3680000   14.7590000   23.3430000  
C 17.2000000   15.2220000   22.7140000  
C 18.0440000   18.8890000   23.0280000  
C 19.3160000   19.2420000   23.6110000  
N 20.0070000   18.0090000   23.8870000  
O 19.3120000   21.5860000   23.0490000  
C 20.0410000   20.5700000   23.5070000  
O 21.2180000   20.7140000   23.8290000  
O 18.5260000   13.4080000   23.4850000  
O 16.2980000   14.3400000   22.1700000  
H 17.3770000   19.5510000   22.5480000  
H 18.3990000   21.2520000   23.0070000  
H 20.9580000   17.9110000   24.1700000  
H 19.2240000   13.3040000   24.1520000  
H 16.6960000   13.4170000   22.0210000  
C 20.8620000   15.0650000   24.0650000  
C 21.1260000   14.6930000   25.3230000  
C 22.3880000   14.2770000   25.7220000  
C 23.4410000   14.1800000   24.8150000  
C 23.2070000   14.6520000   23.5340000  
C 21.9400000   15.0800000   23.1040000  
C 20.2760000   14.6130000   26.5320000  
C 21.1040000   14.3120000   27.6150000  
N 22.3770000   14.0180000   27.0520000  
O 19.3360000   14.1770000   29.2490000  
C 20.6700000   14.1500000   29.0360000  
O 21.4150000   13.9870000   29.9580000  
O 24.2370000   14.7070000   22.6260000  
O 21.7250000   15.4400000   21.8070000  
H 19.1340000   14.8070000   26.5640000  
H 19.0350000   14.1730000   28.3400000  
H 23.1630000   13.5800000   27.5370000  
H 24.0550000   15.4000000   21.9920000  
H 20.7750000   15.4020000   21.6380000  
H 24.4610000   13.9310000   25.1170000  
