76
111 
C 22.8760000   12.3020000   22.8560000  
C 23.2070000   12.6280000   24.2930000  
C 22.3830000   13.3180000   25.1030000  
C 21.1600000   13.7230000   24.5540000  
C 20.8570000   13.8570000   23.2360000  
C 21.6340000   13.0550000   22.2700000  
C 22.4770000   13.6830000   26.4900000  
C 21.3410000   14.4590000   26.7270000  
N 20.5260000   14.4180000   25.5570000  
O 21.9700000   15.1390000   28.9310000  
C 21.0080000   15.1710000   27.9850000  
O 19.9330000   15.7190000   28.0900000  
O 21.4900000   13.0730000   21.0610000  
O 23.5270000   11.5500000   22.1460000  
H 24.0950000   12.1170000   24.6800000  
H 23.1610000   13.3780000   27.2960000  
H 22.4670000   14.4070000   28.6100000  
H 19.5050000   14.7340000   25.4380000  
C 19.6980000   14.6410000   22.8950000  
C 19.6780000   16.0410000   23.0680000  
C 18.5290000   16.7670000   22.7780000  
C 17.3280000   16.1840000   22.3100000  
C 17.3160000   14.7670000   22.2400000  
C 18.5060000   14.0020000   22.4910000  
C 20.6490000   17.0080000   23.5350000  
C 20.0860000   18.2800000   23.2590000  
N 18.7600000   18.1100000   22.7660000  
O 21.8590000   19.5080000   24.1570000  
C 20.5510000   19.5760000   23.8130000  
O 19.8010000   20.5090000   23.9300000  
O 16.2110000   14.0810000   21.8030000  
O 18.5180000   12.6670000   22.3350000  
H 21.5270000   16.7190000   24.0380000  
H 22.1850000   18.7090000   23.6950000  
H 18.0800000   18.8380000   22.5410000  
H 15.5880000   14.6910000   21.5310000  
H 17.6220000   12.4360000   22.0410000  
C 16.2490000   17.1260000   21.8580000  
C 16.2790000   17.7060000   20.5850000  
C 15.2070000   18.3930000   20.0500000  
C 14.0050000   18.5720000   20.6830000  
C 13.9750000   18.0080000   22.0080000  
C 15.0270000   17.3120000   22.6220000  
C 17.2560000   17.6750000   19.4940000  
C 16.6490000   18.1580000   18.3550000  
N 15.3250000   18.5480000   18.6770000  
O 18.6870000   17.9440000   17.0830000  
C 17.3900000   18.3670000   17.0640000  
O 16.7880000   18.9190000   16.1750000  
O 12.7690000   18.2300000   22.6430000  
O 14.8990000   16.6590000   23.8210000  
H 18.3510000   17.2750000   19.5060000  
H 18.7620000   17.4740000   17.9620000  
H 14.5600000   18.8090000   18.0890000  
H 12.2050000   18.6970000   21.9390000  
H 14.1110000   17.0100000   24.2770000  
C 12.8270000   19.2090000   19.9080000  
C 11.8130000   18.3720000   19.3550000  
C 10.7290000   18.9220000   18.7910000  
C 10.4740000   20.2680000   18.7180000  
C 11.4170000   21.1490000   19.0700000  
C 12.6050000   20.6570000   19.6830000  
C 11.6390000   16.9230000   19.4000000  
C 10.4550000   16.6610000   18.7380000  
N  9.8530000   17.9320000   18.4040000  
O 10.5850000   14.2960000   18.5380000  
C  9.8790000   15.3870000   18.2330000  
O  8.8370000   15.3220000   17.6170000  
O 11.1750000   22.5160000   18.9000000  
O 13.5400000   21.5890000   20.0540000  
H 12.3180000   16.1410000   19.8060000  
H 11.3940000   14.6580000   18.8890000  
H  9.0110000   18.0330000   17.8880000  
H 11.8710000   22.9550000   19.3260000  
H 14.1570000   21.0120000   20.6300000  
H  9.5760000   20.6570000   18.2370000  
