76
111 
C 14.4420000   15.6340000   14.2300000  
C 14.8790000   14.1510000   14.2950000  
C 15.3420000   13.6880000   15.5060000  
C 15.5450000   14.4890000   16.5980000  
C 15.2720000   15.8720000   16.7170000  
C 14.6540000   16.5290000   15.5560000  
C 15.7600000   12.3560000   15.7620000  
C 16.2610000   12.3800000   17.0500000  
N 16.1530000   13.7210000   17.5250000  
O 16.8550000   10.1340000   17.1400000  
C 16.7080000   11.2340000   17.8750000  
O 17.0110000   11.2790000   19.0350000  
O 14.2400000   17.6620000   15.4720000  
O 13.9640000   16.0400000   13.1990000  
H 14.6280000   13.5830000   13.4150000  
H 15.8490000   11.5010000   15.0580000  
H 16.5110000   10.3000000   16.2530000  
H 16.5210000   14.1030000   18.4430000  
C 15.5460000   16.4610000   18.0410000  
C 16.8250000   16.9520000   18.3620000  
C 17.2260000   17.2880000   19.6180000  
C 16.3830000   17.1420000   20.7500000  
C 15.0850000   16.7600000   20.4100000  
C 14.6690000   16.4830000   19.0540000  
C 18.0560000   16.8520000   17.5980000  
C 19.1660000   17.1410000   18.3830000  
N 18.6190000   17.5140000   19.6530000  
O 21.0370000   16.9560000   16.9030000  
C 20.6200000   17.0870000   18.1940000  
O 21.4640000   17.0760000   19.0450000  
O 14.1600000   16.4710000   21.3700000  
O 13.4240000   16.0770000   18.7570000  
H 18.1860000   16.5900000   16.5870000  
H 20.1890000   16.9160000   16.3430000  
H 19.1010000   17.7110000   20.5360000  
H 14.5070000   16.7830000   22.2410000  
H 12.8570000   16.3930000   19.5080000  
C 17.0180000   17.1970000   22.0620000  
C 16.6440000   18.2090000   23.0000000  
C 17.1870000   18.2520000   24.2420000  
C 18.1840000   17.3950000   24.6970000  
C 18.6660000   16.4330000   23.7420000  
C 18.0380000   16.3030000   22.4450000  
C 15.5990000   19.2190000   23.0110000  
C 15.6940000   19.9680000   24.1930000  
N 16.6700000   19.3570000   24.9590000  
O 13.7620000   21.4050000   23.8850000  
C 14.7720000   21.0070000   24.6980000  
O 14.9610000   21.5030000   25.8080000  
O 19.6460000   15.4970000   24.2060000  
O 18.5040000   15.3090000   21.6220000  
H 15.0220000   19.4650000   22.1260000  
H 13.9270000   20.8870000   23.0800000  
H 16.7790000   19.5770000   25.9570000  
H 20.0990000   15.8850000   24.9530000  
H 19.1010000   14.7730000   22.1480000  
C 18.7030000   17.6450000   26.0710000  
C 17.8730000   17.5620000   27.2160000  
C 18.4380000   17.8530000   28.4490000  
C 19.7340000   18.2460000   28.6740000  
C 20.6260000   18.2400000   27.5720000  
C 20.0530000   18.0270000   26.2520000  
C 16.5170000   17.3330000   27.3610000  
C 16.2390000   17.2970000   28.6620000  
N 17.3530000   17.7500000   29.3110000  
O 13.8660000   16.8050000   28.4580000  
C 14.8970000   17.0570000   29.2920000  
O 14.7320000   17.0540000   30.4890000  
O 21.9130000   18.5170000   27.7710000  
O 20.8310000   18.3870000   25.1530000  
H 15.8150000   17.2410000   26.5290000  
H 14.1900000   16.8510000   27.5620000  
H 17.3880000   17.9950000   30.2690000  
H 22.3710000   18.4670000   26.9050000  
H 20.2570000   18.4320000   24.3470000  
H 20.1100000   18.5150000   29.6920000  
