76
111 
C 15.9090000   19.6310000   28.4830000  
C 14.5300000   20.1920000   28.4510000  
C 13.6910000   19.9930000   27.3780000  
C 14.1660000   19.2920000   26.2610000  
C 15.4150000   18.8120000   26.1040000  
C 16.3840000   18.8390000   27.2430000  
C 12.3170000   20.3560000   27.0770000  
C 12.0260000   19.9750000   25.7490000  
N 13.1920000   19.3290000   25.3000000  
O  9.7890000   21.0420000   25.4040000  
C 10.7590000   20.1840000   24.9840000  
O 10.6360000   19.5910000   23.9400000  
O 17.4150000   18.1480000   27.2390000  
O 16.7080000   19.7240000   29.3910000  
H 14.1450000   20.5900000   29.4140000  
H 11.5810000   20.7830000   27.6850000  
H 10.0620000   21.5560000   26.1550000  
H 13.1700000   18.7450000   24.4710000  
C 15.7540000   18.2420000   24.8410000  
C 16.1590000   19.1000000   23.8040000  
C 16.4300000   18.5930000   22.5660000  
C 16.4300000   17.1990000   22.2490000  
C 15.9710000   16.3510000   23.2970000  
C 15.5330000   16.9070000   24.5100000  
C 16.4770000   20.5200000   23.7340000  
C 17.0500000   20.7620000   22.4670000  
N 17.0700000   19.5380000   21.7620000  
O 17.6510000   23.0580000   22.9460000  
C 17.7120000   22.0320000   22.0590000  
O 18.4120000   22.0770000   21.0950000  
O 15.8910000   14.9760000   23.0810000  
O 15.0340000   16.1120000   25.4980000  
H 16.3630000   21.2110000   24.6010000  
H 17.0430000   22.6390000   23.6110000  
H 17.3040000   19.4100000   20.7940000  
H 15.9780000   14.7590000   22.1650000  
H 15.0880000   15.2500000   25.1120000  
C 16.8460000   16.6560000   20.9210000  
C 18.1500000   16.2850000   20.5300000  
C 18.4520000   15.6020000   19.3780000  
C 17.4940000   15.2590000   18.4140000  
C 16.1730000   15.6660000   18.7180000  
C 15.8460000   16.4190000   19.8930000  
C 19.4170000   16.2750000   21.2700000  
C 20.3380000   15.5390000   20.5310000  
N 19.7200000   15.2200000   19.3080000  
O 21.9920000   15.9060000   22.1070000  
C 21.6780000   15.2180000   21.0250000  
O 22.4040000   14.4190000   20.5500000  
O 15.0710000   15.4160000   17.9040000  
O 14.5600000   16.8680000   20.0640000  
H 19.5730000   16.7290000   22.2180000  
H 21.3330000   16.6170000   22.1480000  
H 20.1200000   14.6320000   18.5840000  
H 15.3590000   14.8440000   17.1860000  
H 13.9860000   16.2490000   19.6550000  
C 17.8770000   14.3470000   17.3400000  
C 18.3420000   13.0260000   17.5960000  
C 18.8370000   12.1900000   16.6180000  
C 18.8620000   12.6090000   15.2980000  
C 18.4790000   13.9230000   14.9440000  
C 17.8840000   14.7820000   15.9360000  
C 18.6150000   12.2810000   18.8680000  
C 19.3340000   11.1260000   18.5350000  
N 19.5090000   11.0890000   17.1540000  
O 19.6880000   10.1520000   20.6900000  
C 19.9270000   10.0600000   19.4000000  
O 20.6040000    9.1210000   19.0550000  
O 18.5740000   14.3990000   13.6900000  
O 17.5080000   16.0770000   15.4930000  
H 18.1720000   12.4760000   19.8280000  
H 19.0530000   10.8520000   20.8250000  
H 20.0990000   10.5700000   16.5870000  
H 18.3210000   15.2670000   13.6760000  
H 17.4040000   16.6050000   16.2600000  
H 19.2270000   11.8560000   14.5970000  
