76
111 
C 17.2440000   18.9990000   29.2260000  
C 15.7980000   19.2660000   29.3190000  
C 14.9910000   19.1740000   28.2080000  
C 15.5110000   18.7610000   27.0020000  
C 16.8270000   18.4510000   26.7370000  
C 17.8120000   18.5230000   27.8130000  
C 13.5940000   19.2440000   28.0820000  
C 13.3020000   18.9900000   26.7250000  
N 14.5100000   18.5650000   26.1290000  
O 11.0350000   19.6870000   26.5220000  
C 12.0410000   18.9870000   26.0150000  
O 11.9210000   18.4590000   24.8980000  
O 19.0020000   18.1830000   27.6680000  
O 17.9830000   19.1010000   30.1970000  
H 15.4370000   19.5100000   30.3000000  
H 12.9170000   19.6710000   28.8320000  
H 11.4430000   19.9990000   27.3630000  
H 14.7090000   18.3570000   25.1400000  
C 17.1610000   17.8150000   25.3960000  
C 17.2630000   18.6460000   24.2860000  
C 17.4290000   18.2960000   23.0310000  
C 17.7200000   16.8970000   22.6910000  
C 17.6830000   16.0190000   23.7660000  
C 17.4160000   16.4600000   25.1300000  
C 16.8630000   20.0560000   24.1980000  
C 17.1100000   20.4640000   22.8860000  
N 17.3560000   19.3130000   22.1170000  
O 16.7740000   22.7810000   23.3540000  
C 17.1510000   21.8650000   22.4150000  
O 17.3060000   22.1440000   21.2510000  
O 18.0250000   14.6840000   23.6140000  
O 17.3060000   15.5780000   26.1720000  
H 16.6490000   20.7100000   24.9980000  
H 16.7890000   22.1900000   24.1510000  
H 17.6940000   19.2080000   21.2090000  
H 18.3090000   14.5400000   22.6500000  
H 17.5400000   14.6690000   25.7610000  
C 17.7230000   16.4670000   21.2610000  
C 18.8100000   16.1170000   20.4800000  
C 18.6460000   15.6550000   19.1870000  
C 17.4080000   15.3200000   18.6150000  
C 16.3270000   15.7360000   19.3970000  
C 16.4150000   16.2050000   20.6970000  
C 20.1970000   16.1870000   20.8430000  
C 20.7990000   15.6730000   19.6880000  
N 19.8800000   15.3490000   18.6310000  
O 23.0410000   16.0360000   20.4680000  
C 22.2480000   15.6160000   19.4540000  
O 22.6520000   15.3270000   18.3710000  
O 15.0610000   15.6210000   18.8670000  
O 15.2610000   16.4070000   21.4490000  
H 20.6200000   16.5290000   21.7790000  
H 22.4610000   16.2300000   21.2260000  
H 20.0530000   14.8220000   17.8510000  
H 15.1400000   15.2000000   17.9460000  
H 14.5490000   16.2520000   20.8370000  
C 17.2750000   14.9510000   17.1670000  
C 16.4820000   13.8770000   16.7340000  
C 16.4200000   13.5220000   15.4180000  
C 16.9270000   14.2310000   14.3470000  
C 17.5750000   15.4370000   14.7600000  
C 17.8020000   15.7610000   16.1530000  
C 15.8830000   12.8470000   17.5460000  
C 15.2730000   11.9350000   16.6920000  
N 15.5700000   12.4310000   15.3820000  
O 14.5990000   10.2720000   18.3950000  
C 14.5400000   10.6910000   17.0470000  
O 13.9570000   10.0810000   16.1780000  
O 18.2230000   16.1970000   13.8510000  
O 18.3140000   16.9850000   16.4510000  
H 15.7750000   12.7250000   18.5690000  
H 15.1890000   10.7620000   18.8900000  
H 15.2430000   11.9160000   14.5870000  
H 19.1020000   16.4960000   14.2060000  
H 17.9850000   17.2260000   17.3910000  
H 17.0310000   13.7810000   13.3420000  
