76
111 
C 16.8350000   19.3020000   28.8000000  
C 15.4770000   19.8400000   29.0420000  
C 14.5680000   19.9610000   28.0710000  
C 14.8730000   19.4730000   26.8050000  
C 16.0720000   18.8940000   26.3720000  
C 17.1020000   18.6720000   27.3820000  
C 13.2230000   20.4780000   28.0110000  
C 12.7540000   20.2840000   26.7050000  
N 13.8050000   19.6670000   25.9740000  
O 10.4240000   20.8400000   26.8770000  
C 11.4050000   20.3710000   26.0880000  
O 11.1430000   19.9790000   24.9880000  
O 18.0500000   17.9270000   27.1820000  
O 17.6960000   19.1910000   29.6460000  
H 15.2530000   20.1860000   30.0480000  
H 12.6700000   20.6870000   28.9280000  
H 10.8330000   21.0600000   27.7330000  
H 13.7380000   19.1890000   25.0750000  
C 16.1160000   18.2190000   25.0880000  
C 16.6340000   18.8390000   23.9460000  
C 16.7310000   18.1400000   22.7750000  
C 16.3790000   16.7820000   22.6110000  
C 15.9210000   16.1500000   23.8070000  
C 15.6400000   16.8720000   24.9540000  
C 17.1480000   20.1450000   23.7020000  
C 17.6610000   20.1220000   22.4050000  
N 17.3820000   18.8790000   21.8310000  
O 18.7690000   22.2030000   22.4660000  
C 18.3170000   21.2180000   21.6330000  
O 18.4770000   21.2770000   20.4600000  
O 15.7630000   14.7690000   23.8510000  
O 15.2370000   16.2250000   26.0410000  
H 17.1540000   21.0050000   24.3170000  
H 18.5830000   21.9460000   23.4010000  
H 17.4350000   18.7380000   20.8480000  
H 16.0700000   14.5370000   22.9470000  
H 15.1590000   15.3050000   25.8190000  
C 16.6690000   16.0800000   21.3040000  
C 17.9970000   16.1260000   20.7460000  
C 18.3470000   15.5290000   19.6070000  
C 17.3850000   15.0080000   18.7680000  
C 16.0570000   14.9730000   19.2530000  
C 15.7040000   15.4730000   20.4890000  
C 19.2480000   16.6600000   21.2470000  
C 20.2010000   16.4410000   20.2810000  
N 19.6310000   15.8000000   19.2150000  
O 21.8840000   17.3090000   21.5610000  
C 21.5800000   16.8160000   20.3470000  
O 22.4110000   16.6970000   19.4870000  
O 15.0750000   14.5790000   18.3690000  
O 14.4230000   15.4750000   20.9220000  
H 19.3890000   17.2500000   22.0840000  
H 21.1170000   17.2250000   22.1110000  
H 20.1650000   15.2790000   18.5150000  
H 15.4080000   13.9930000   17.6230000  
H 13.8810000   15.4990000   20.1480000  
C 17.7140000   14.5600000   17.3600000  
C 17.7140000   13.1740000   17.0740000  
C 18.1200000   12.7930000   15.8380000  
C 18.5200000   13.6350000   14.8340000  
C 18.3510000   14.9740000   15.0380000  
C 17.9140000   15.4430000   16.2800000  
C 17.5110000   12.0190000   17.8390000  
C 17.6930000   10.9470000   16.9780000  
N 18.0630000   11.4180000   15.7220000  
O 17.7130000    9.0900000   18.4690000  
C 17.5940000    9.4480000   17.1880000  
O 17.4630000    8.7290000   16.2110000  
O 18.7560000   15.7840000   13.9920000  
O 17.6640000   16.7920000   16.5210000  
H 17.2940000   11.9420000   18.9040000  
H 17.6680000    9.8550000   18.9760000  
H 18.2180000   10.9410000   14.8110000  
H 18.9030000   16.6510000   14.3440000  
H 17.1780000   16.8450000   17.3740000  
H 18.6570000   13.3070000   13.8620000  
