76
111 
C 12.7080000   21.9520000   25.4450000  
C 11.3580000   21.6440000   25.0380000  
C 11.1550000   20.5900000   24.2140000  
C 12.1420000   19.7030000   23.7520000  
C 13.5020000   19.8560000   24.0370000  
C 13.8760000   21.0240000   24.8960000  
C  9.8780000   20.1470000   23.6240000  
C 10.1060000   18.9960000   22.8560000  
N 11.5030000   18.7190000   23.0540000  
O  7.8340000   18.7940000   22.1940000  
C  9.0380000   18.3130000   22.0670000  
O  9.4310000   17.3920000   21.3270000  
O 15.0360000   21.3030000   25.1260000  
O 12.9140000   22.8570000   26.2270000  
H 10.5140000   22.2630000   25.3870000  
H  8.9120000   20.5980000   23.8120000  
H  7.9170000   19.3970000   22.9910000  
H 11.8970000   17.8680000   22.6890000  
C 14.4460000   18.8930000   23.5620000  
C 15.3860000   19.2190000   22.5940000  
C 16.1550000   18.3230000   21.9690000  
C 16.1570000   17.0030000   22.3590000  
C 15.1860000   16.5880000   23.3200000  
C 14.3210000   17.5210000   23.8650000  
C 15.8190000   20.4690000   22.0450000  
C 16.7910000   20.2270000   21.0830000  
N 16.9090000   18.8500000   20.9750000  
O 17.3990000   22.5380000   20.6650000  
C 17.5800000   21.2500000   20.3000000  
O 18.1960000   20.9320000   19.3080000  
O 15.0940000   15.2710000   23.6640000  
O 13.5050000   17.1550000   24.9140000  
H 15.3910000   21.3940000   22.4110000  
H 16.8770000   22.3780000   21.4010000  
H 17.6360000   18.3820000   20.5000000  
H 15.3790000   14.8160000   22.8340000  
H 13.7420000   16.2590000   25.1830000  
C 17.0510000   16.0190000   21.6000000  
C 18.4500000   16.1020000   21.7490000  
C 19.2220000   15.3810000   20.9740000  
C 18.7820000   14.4620000   20.0350000  
C 17.3520000   14.2210000   19.9940000  
C 16.5110000   14.9760000   20.8140000  
C 19.3590000   16.8370000   22.6470000  
C 20.6180000   16.4920000   22.3070000  
N 20.5460000   15.6690000   21.1930000  
O 21.5880000   17.5120000   24.1460000  
C 21.8710000   16.9320000   22.9940000  
O 22.9900000   16.6030000   22.7210000  
O 16.8220000   13.2310000   19.2470000  
O 15.1520000   14.8260000   20.6750000  
H 19.0390000   17.5830000   23.3880000  
H 20.6550000   17.8080000   24.0920000  
H 21.3280000   15.3380000   20.6640000  
H 17.4720000   12.6050000   19.0520000  
H 14.8670000   14.3230000   19.8880000  
C 19.7170000   13.7030000   19.1640000  
C 20.6230000   12.7110000   19.6790000  
C 21.5910000   12.1270000   18.8550000  
C 21.7450000   12.4440000   17.5550000  
C 20.7480000   13.3240000   16.9920000  
C 19.7970000   13.9370000   17.8010000  
C 20.7720000   12.1280000   21.0150000  
C 21.8530000   11.2410000   20.9390000  
N 22.3280000   11.2330000   19.6370000  
O 21.7780000   10.5420000   23.2980000  
C 22.4270000   10.4570000   22.0990000  
O 23.3930000    9.7530000   21.9870000  
O 20.8610000   13.7000000   15.7120000  
O 19.0030000   14.8760000   17.2230000  
H 20.2350000   12.3350000   21.8750000  
H 21.0790000   11.1580000   23.1610000  
H 23.0880000   10.6800000   19.3440000  
H 20.2860000   14.3810000   15.4590000  
H 18.4110000   15.1310000   18.0110000  
H 22.6230000   12.0310000   16.9760000  
