76
111 
C 23.7800000   14.3430000   24.3130000  
C 23.4370000   13.9750000   25.6360000  
C 22.1000000   13.8740000   26.0120000  
C 21.0620000   14.0240000   25.1310000  
C 21.2750000   14.6600000   23.8920000  
C 22.6380000   14.7210000   23.3100000  
C 21.4380000   13.6180000   27.2690000  
C 20.0610000   13.6430000   27.1540000  
N 19.8600000   13.9350000   25.7830000  
O 19.6020000   13.1160000   29.4740000  
C 19.0460000   13.3850000   28.2240000  
O 17.8390000   13.4160000   27.9570000  
O 22.8400000   15.0260000   22.1870000  
O 24.9400000   14.4180000   24.0760000  
H 24.2380000   13.7930000   26.3230000  
H 21.9100000   13.3260000   28.1540000  
H 20.5550000   13.4010000   29.3940000  
H 18.9320000   14.0390000   25.4030000  
C 20.0820000   15.2280000   23.2240000  
C 19.3930000   16.3570000   23.7140000  
C 18.3170000   16.8930000   23.0680000  
C 17.7650000   16.4080000   21.8480000  
C 18.5110000   15.3470000   21.2860000  
C 19.5920000   14.7810000   21.9190000  
C 19.5880000   17.0590000   24.9300000  
C 18.5900000   18.0070000   25.0160000  
N 17.7410000   17.8390000   23.8860000  
O 19.3930000   18.8880000   26.9860000  
C 18.3780000   18.9350000   26.1240000  
O 17.3920000   19.5890000   26.1650000  
O 18.0400000   14.6340000   20.1640000  
O 20.1550000   13.6350000   21.3810000  
H 20.4790000   16.9580000   25.6120000  
H 20.0060000   18.2600000   26.5650000  
H 16.9000000   18.3030000   23.6980000  
H 17.1850000   14.8840000   19.7810000  
H 19.5940000   13.3790000   20.6510000  
C 16.4250000   16.8040000   21.2620000  
C 16.4120000   17.4870000   20.0640000  
C 15.2910000   18.0080000   19.5260000  
C 14.0120000   17.9760000   20.1480000  
C 14.0370000   17.4190000   21.4380000  
C 15.1740000   16.7410000   21.9900000  
C 17.4100000   17.7590000   19.0680000  
C 16.8250000   18.4420000   17.9990000  
N 15.4880000   18.6620000   18.2810000  
O 18.7170000   18.2640000   16.5050000  
C 17.4710000   18.9090000   16.7600000  
O 16.9570000   19.7010000   16.0010000  
O 12.8760000   17.4200000   22.1350000  
O 15.2200000   16.2980000   23.3820000  
H 18.4680000   17.5330000   19.1570000  
H 18.8740000   17.7140000   17.2710000  
H 14.8320000   19.0430000   17.6490000  
H 12.2130000   17.7640000   21.5700000  
H 14.3330000   16.4540000   23.7650000  
C 12.7860000   18.6140000   19.5590000  
C 12.0080000   17.9650000   18.5890000  
C 10.9860000   18.6350000   18.0090000  
C 10.6480000   19.9730000   18.4140000  
C 11.3770000   20.6180000   19.3840000  
C 12.5250000   19.9680000   19.9140000  
C 12.1520000   16.6790000   17.9880000  
C 11.2940000   16.6960000   16.9170000  
N 10.4670000   17.8900000   16.9840000  
O 12.3080000   14.7770000   15.8750000  
C 11.2960000   15.6960000   15.8100000  
O 10.5440000   15.7470000   14.9320000  
O 11.2170000   21.9520000   19.4870000  
O 13.3860000   20.5790000   20.7760000  
H 12.8240000   15.8270000   18.2070000  
H 12.7090000   15.0480000   16.7500000  
H  9.6970000   18.1770000   16.3580000  
H 11.9240000   22.3700000   20.0520000  
H 14.1410000   19.9940000   20.9660000  
H  9.8540000   20.4040000   17.8360000  
