76
111 
C 22.1170000   14.6980000   26.9880000  
C 21.3680000   15.1200000   28.1720000  
C 20.1260000   15.6230000   28.0770000  
C 19.4280000   15.8520000   26.9100000  
C 19.9990000   15.4610000   25.7040000  
C 21.3260000   14.7770000   25.6310000  
C 19.3550000   16.1090000   29.1630000  
C 18.1500000   16.6230000   28.6300000  
N 18.2860000   16.5120000   27.2100000  
O 17.0870000   16.8830000   30.6670000  
C 16.9820000   17.1100000   29.3720000  
O 15.9330000   17.3570000   28.8560000  
O 21.8600000   14.3610000   24.6070000  
O 23.2700000   14.2770000   27.0650000  
H 21.9390000   14.9030000   29.1260000  
H 19.5640000   16.0850000   30.2420000  
H 18.0020000   16.5660000   30.8080000  
H 17.5620000   16.8900000   26.5230000  
C 19.1690000   15.8130000   24.5280000  
C 18.8570000   17.1570000   24.2540000  
C 17.9500000   17.4660000   23.2610000  
C 17.3470000   16.5460000   22.4320000  
C 17.6730000   15.1480000   22.7080000  
C 18.4870000   14.7670000   23.7960000  
C 19.6220000   18.3780000   24.4860000  
C 19.0550000   19.3770000   23.7830000  
N 18.1090000   18.8110000   22.9270000  
O 20.2170000   21.3050000   24.8390000  
C 19.3260000   20.8540000   23.8770000  
O 18.6860000   21.6140000   23.1830000  
O 17.2150000   14.1540000   21.8880000  
O 18.8210000   13.4670000   23.9370000  
H 20.3810000   18.4900000   25.2480000  
H 20.6230000   20.4830000   25.2300000  
H 17.5290000   19.3570000   22.3530000  
H 16.6580000   14.5570000   21.2300000  
H 18.2550000   12.9690000   23.3180000  
C 16.5980000   16.8830000   21.1570000  
C 17.1240000   16.4790000   19.9290000  
C 16.3990000   16.7830000   18.8150000  
C 15.0830000   17.3370000   18.7940000  
C 14.5620000   17.6770000   20.0250000  
C 15.3040000   17.4710000   21.1690000  
C 18.3850000   15.8360000   19.5070000  
C 18.2990000   15.7390000   18.0960000  
N 17.0760000   16.3070000   17.6530000  
O 20.1920000   14.3250000   17.8400000  
C 19.1700000   14.8530000   17.1990000  
O 18.9000000   14.6420000   16.0390000  
O 13.4220000   18.3480000   20.1640000  
O 14.7410000   17.9120000   22.3200000  
H 19.1510000   15.4510000   20.0790000  
H 20.1000000   14.6210000   18.7600000  
H 16.7970000   16.2540000   16.7020000  
H 12.9800000   18.3220000   19.3190000  
H 13.8260000   18.1120000   22.1210000  
C 14.3380000   17.6300000   17.5060000  
C 13.1250000   17.0330000   17.1220000  
C 12.4680000   17.3090000   15.9740000  
C 12.9670000   18.2760000   15.0460000  
C 14.2160000   18.8620000   15.3470000  
C 14.8700000   18.5720000   16.5490000  
C 12.2910000   16.0810000   17.8900000  
C 11.2220000   15.8420000   17.0770000  
N 11.3190000   16.5930000   15.8850000  
O 10.1950000   14.2190000   18.5020000  
C 10.0650000   14.9680000   17.3470000  
O  9.1540000   14.8860000   16.5900000  
O 14.7560000   19.8210000   14.5190000  
O 16.0480000   19.2640000   16.7920000  
H 12.4650000   15.6020000   18.8610000  
H 10.9910000   14.7500000   18.7740000  
H 10.6720000   16.4410000   15.0990000  
H 15.3430000   20.2990000   15.0650000  
H 16.2590000   19.0350000   17.6800000  
H 12.4160000   18.5130000   14.1660000  
