76
111 
C 17.5110000   11.5470000   16.5500000  
C 18.7490000   10.7900000   16.8280000  
C 19.5680000   11.0940000   17.8720000  
C 19.2180000   12.0960000   18.7860000  
C 18.0200000   12.7380000   18.8190000  
C 17.1090000   12.5970000   17.6650000  
C 20.7990000   10.6020000   18.3150000  
C 21.1100000   11.1070000   19.5270000  
N 20.1510000   12.1080000   19.7490000  
O 23.1180000    9.9130000   19.7940000  
C 22.2250000   10.7920000   20.3540000  
O 22.3610000   11.2680000   21.4700000  
O 16.0680000   13.2380000   17.5580000  
O 16.8400000   11.4390000   15.5340000  
H 18.9780000   10.1280000   16.0390000  
H 21.3020000    9.7100000   17.9100000  
H 22.5820000    9.4350000   19.1170000  
H 20.1440000   12.6470000   20.6350000  
C 17.9350000   13.7550000   19.9030000  
C 18.3010000   15.0540000   19.5160000  
C 17.9910000   16.0800000   20.3430000  
C 17.2600000   15.9240000   21.5310000  
C 17.0260000   14.5890000   21.9910000  
C 17.3590000   13.4700000   21.1820000  
C 18.9200000   15.6380000   18.3710000  
C 18.7920000   17.0030000   18.4170000  
N 18.1330000   17.2450000   19.6370000  
O 19.9680000   17.5610000   16.4950000  
C 19.2110000   18.0370000   17.5010000  
O 18.8960000   19.2510000   17.6020000  
O 16.3570000   14.3220000   23.1790000  
O 16.9610000   12.2200000   21.5260000  
H 19.3430000   15.1140000   17.6010000  
H 19.9070000   16.5890000   16.7010000  
H 17.9140000   18.1230000   19.9140000  
H 16.1950000   15.1820000   23.5910000  
H 16.7960000   12.1630000   22.4720000  
C 16.8960000   17.0360000   22.3530000  
C 15.9870000   17.9920000   21.8750000  
C 15.5760000   19.0120000   22.6040000  
C 16.0470000   19.3320000   23.8660000  
C 17.0350000   18.4050000   24.3740000  
C 17.4540000   17.2340000   23.6470000  
C 15.2100000   17.9720000   20.6570000  
C 14.3030000   19.0160000   20.7980000  
N 14.5500000   19.7140000   22.0040000  
O 13.2310000   18.7800000   18.7690000  
C 13.2230000   19.4340000   19.9120000  
O 12.4300000   20.3450000   20.1180000  
O 17.6700000   18.6010000   25.5270000  
O 18.4740000   16.4280000   24.0620000  
H 15.1740000   17.1400000   19.9600000  
H 13.8690000   18.0560000   18.8950000  
H 13.9690000   20.4800000   22.3060000  
H 17.4320000   19.4680000   25.9000000  
H 18.7720000   16.8750000   24.8810000  
C 15.5270000   20.5410000   24.6740000  
C 14.8750000   20.4650000   25.9560000  
C 14.5310000   21.6250000   26.6180000  
C 14.7940000   22.8630000   26.0790000  
C 15.3820000   23.0010000   24.7710000  
C 15.7980000   21.8450000   24.1510000  
C 14.4080000   19.3880000   26.7840000  
C 13.6830000   19.9800000   27.8450000  
N 13.8430000   21.3330000   27.7980000  
O 13.0610000   17.9220000   28.9840000  
C 13.0090000   19.2940000   28.9530000  
O 12.4600000   19.8930000   29.8180000  
O 15.3840000   24.1750000   24.1210000  
O 16.4500000   21.9400000   22.9270000  
H 14.5440000   18.3060000   26.6320000  
H 13.5470000   17.6380000   28.1360000  
H 13.7460000   22.0250000   28.5190000  
H 15.8470000   24.1510000   23.2390000  
H 16.6100000   20.9400000   22.7300000  
H 14.3870000   23.6660000   26.6480000  
