76
111 
C 20.3020000   18.4150000   28.1650000  
C 19.1620000   18.3480000   29.0580000  
C 17.9580000   17.9620000   28.7040000  
C 17.6130000   17.7840000   27.3920000  
C 18.5130000   17.8520000   26.4050000  
C 19.9980000   18.1290000   26.6400000  
C 16.7360000   17.7240000   29.3980000  
C 15.7070000   17.3940000   28.4790000  
N 16.3290000   17.3400000   27.2150000  
O 14.0450000   16.7400000   30.1290000  
C 14.3100000   16.9270000   28.8300000  
O 13.4240000   16.8230000   28.0240000  
O 20.8680000   17.9590000   25.8460000  
O 21.4500000   18.6570000   28.5220000  
H 19.4370000   18.4500000   30.0830000  
H 16.6920000   17.6440000   30.4520000  
H 14.9600000   16.8690000   30.5680000  
H 15.8750000   17.1630000   26.3330000  
C 17.9830000   17.6090000   25.1450000  
C 17.6950000   18.6320000   24.3130000  
C 17.2990000   18.3270000   23.0700000  
C 17.2030000   17.0380000   22.4640000  
C 17.4840000   15.9800000   23.3940000  
C 17.8380000   16.2850000   24.6930000  
C 17.6390000   20.0270000   24.4960000  
C 17.2010000   20.5410000   23.2790000  
N 16.9740000   19.5070000   22.3720000  
O 16.9500000   22.6700000   24.0680000  
C 16.8150000   21.9280000   22.9820000  
O 16.4710000   22.3190000   21.8960000  
O 17.5150000   14.7640000   22.9550000  
O 18.1360000   15.2880000   25.5700000  
H 17.8930000   20.5650000   25.3930000  
H 17.3770000   22.0180000   24.7280000  
H 16.5450000   19.6260000   21.4610000  
H 16.8140000   14.7570000   22.2760000  
H 17.9240000   14.4510000   25.1700000  
C 16.7810000   16.8340000   21.0550000  
C 17.7970000   16.4610000   20.1120000  
C 17.4000000   16.1020000   18.8310000  
C 16.0990000   16.1790000   18.3190000  
C 15.1140000   16.5690000   19.2690000  
C 15.4380000   16.9220000   20.5790000  
C 19.2670000   16.3680000   20.1660000  
C 19.6350000   15.9850000   18.8880000  
N 18.4760000   15.7930000   18.0800000  
O 22.0600000   16.0910000   19.1340000  
C 20.9800000   15.8210000   18.3320000  
O 21.0660000   15.4930000   17.1150000  
O 13.7680000   16.6190000   18.8570000  
O 14.5400000   17.5580000   21.3860000  
H 19.9400000   16.6280000   20.9940000  
H 21.6700000   16.4110000   19.9070000  
H 18.5210000   15.5450000   17.0630000  
H 13.6480000   16.1400000   18.0120000  
H 13.8400000   17.6870000   20.7220000  
C 15.8510000   15.8000000   16.8940000  
C 15.1930000   14.5780000   16.6130000  
C 14.8090000   14.1870000   15.3640000  
C 15.1810000   14.8750000   14.1870000  
C 15.8260000   16.1710000   14.4520000  
C 16.0590000   16.5860000   15.7640000  
C 14.8070000   13.4790000   17.4690000  
C 14.3110000   12.4680000   16.6960000  
N 14.2480000   12.9000000   15.3740000  
O 13.8150000   11.0510000   18.5340000  
C 13.8230000   11.1900000   17.1950000  
O 13.3390000   10.3210000   16.4680000  
O 16.1950000   17.0590000   13.4370000  
O 16.5000000   17.8850000   15.9470000  
H 15.0090000   13.4960000   18.5450000  
H 14.2890000   11.8680000   18.9090000  
H 13.7300000   12.5270000   14.5950000  
H 15.9840000   17.8900000   13.7590000  
H 16.6730000   18.0400000   16.9080000  
H 14.9950000   14.5520000   13.1670000  
