76
111 
C 10.2140000   20.3660000   22.0200000  
C  9.7190000   20.1450000   20.6450000  
C 10.3920000   19.2520000   19.8370000  
C 11.4780000   18.5820000   20.2170000  
C 12.0700000   18.7440000   21.4440000  
C 11.5260000   19.5980000   22.4660000  
C 10.1530000   18.9720000   18.4430000  
C 11.1740000   18.1640000   17.9460000  
N 11.9730000   17.9830000   19.0860000  
O 10.3530000   17.9610000   15.7140000  
C 11.3080000   17.5590000   16.6080000  
O 12.2860000   16.8530000   16.2230000  
O 12.0300000   19.8780000   23.5410000  
O  9.6850000   21.1200000   22.7920000  
H  8.8340000   20.6140000   20.2450000  
H  9.3350000   19.4090000   17.8960000  
H  9.6230000   18.3830000   16.1570000  
H 12.7650000   17.3570000   19.1900000  
C 13.3130000   18.0020000   21.6330000  
C 14.5570000   18.5380000   21.1640000  
C 15.7820000   18.0100000   21.3730000  
C 15.9120000   16.7890000   22.0540000  
C 14.7050000   16.2150000   22.6800000  
C 13.4570000   16.8790000   22.4990000  
C 14.7940000   19.7810000   20.4300000  
C 16.1300000   19.7760000   20.1360000  
N 16.8060000   18.7110000   20.7370000  
O 16.0270000   21.6800000   18.7480000  
C 16.7820000   20.7330000   19.2480000  
O 18.0300000   20.7350000   19.0190000  
O 14.7420000   15.0540000   23.4530000  
O 12.3190000   16.3250000   23.0540000  
H 14.0690000   20.4200000   19.9790000  
H 15.1300000   21.4310000   19.0000000  
H 17.6900000   18.3510000   20.3530000  
H 15.6510000   14.5630000   23.4700000  
H 12.6430000   15.8110000   23.8550000  
C 17.1730000   16.0840000   22.0680000  
C 18.3010000   16.5250000   22.8300000  
C 19.5170000   15.8880000   22.7620000  
C 19.7710000   14.7780000   21.8790000  
C 18.6450000   14.3080000   21.1780000  
C 17.3710000   14.9710000   21.1810000  
C 18.4700000   17.7200000   23.5700000  
C 19.8470000   17.8120000   23.8230000  
N 20.5520000   16.6450000   23.3120000  
O 19.6130000   20.0590000   24.7930000  
C 20.4940000   19.0740000   24.4190000  
O 21.7040000   19.2380000   24.5270000  
O 18.8140000   13.2320000   20.3030000  
O 16.3340000   14.5120000   20.5790000  
H 17.6020000   18.3620000   23.9340000  
H 18.7340000   19.6000000   24.7920000  
H 21.5160000   16.4080000   23.3980000  
H 19.6810000   12.8710000   20.5390000  
H 16.5430000   13.5860000   20.4080000  
C 21.0910000   13.9980000   21.9470000  
C 21.6120000   13.4920000   23.2020000  
C 22.8700000   12.9690000   23.2370000  
C 23.7180000   12.8590000   22.1600000  
C 23.2460000   13.3560000   20.9510000  
C 21.9020000   13.8490000   20.8240000  
C 21.0890000   13.4430000   24.5090000  
C 22.0120000   12.7120000   25.2980000  
N 23.0450000   12.3710000   24.4550000  
O 20.7060000   12.6280000   27.2400000  
C 21.8080000   12.1840000   26.6230000  
O 22.5820000   11.3980000   27.1390000  
O 24.1480000   13.4310000   19.9440000  
O 21.5860000   14.4130000   19.5800000  
H 20.0320000   13.7690000   24.8750000  
H 20.3040000   13.2220000   26.6220000  
H 23.6890000   11.5980000   24.7150000  
H 23.6930000   13.8460000   19.1940000  
H 20.6520000   14.6490000   19.7280000  
H 24.7360000   12.3930000   22.2650000  
