76
111 
C 14.7870000   12.7380000   15.2720000  
C 14.2110000   13.8910000   14.5540000  
C 14.4380000   15.1630000   15.0180000  
C 15.1080000   15.4640000   16.1820000  
C 15.6090000   14.5190000   17.0040000  
C 15.4550000   13.0880000   16.7170000  
C 13.8780000   16.3740000   14.5160000  
C 14.2420000   17.3820000   15.4040000  
N 14.9270000   16.8040000   16.4880000  
O 13.1920000   19.2680000   14.3110000  
C 13.8600000   18.8160000   15.3460000  
O 14.2940000   19.5400000   16.2540000  
O 15.7990000   12.1190000   17.3960000  
O 14.7400000   11.5910000   14.8290000  
H 13.5240000   13.6490000   13.7720000  
H 13.3800000   16.6010000   13.5920000  
H 13.2050000   18.5150000   13.6870000  
H 15.1970000   17.3300000   17.3220000  
C 16.0920000   15.0830000   18.2970000  
C 15.2770000   15.7160000   19.3280000  
C 15.8120000   16.2950000   20.3850000  
C 17.1700000   16.3880000   20.6950000  
C 17.9990000   15.7920000   19.6820000  
C 17.4930000   15.0620000   18.5870000  
C 13.8840000   15.9480000   19.4110000  
C 13.6510000   16.7300000   20.5890000  
N 14.9280000   16.9910000   21.1750000  
O 11.2870000   17.2430000   20.2130000  
C 12.3720000   17.3640000   21.0320000  
O 12.3190000   18.0490000   22.0580000  
O 19.3230000   15.8110000   19.9300000  
O 18.3560000   14.5530000   17.7020000  
H 13.1500000   15.6540000   18.7190000  
H 11.6230000   16.9010000   19.3630000  
H 15.0910000   17.4450000   22.0210000  
H 19.4140000   16.1610000   20.8890000  
H 19.2700000   14.4810000   18.1290000  
C 17.6970000   17.1440000   21.9940000  
C 17.2760000   16.6600000   23.2110000  
C 17.6720000   17.2730000   24.3830000  
C 18.4550000   18.4200000   24.4910000  
C 18.9770000   18.8240000   23.2480000  
C 18.5990000   18.2460000   21.9950000  
C 16.4870000   15.5610000   23.6040000  
C 16.3460000   15.6100000   24.9950000  
N 17.0880000   16.6460000   25.4830000  
O 14.7360000   13.8220000   25.1820000  
C 15.4780000   14.7600000   25.8580000  
O 15.5420000   14.8050000   27.0610000  
O 19.8370000   19.8950000   23.2790000  
O 19.1800000   18.6070000   20.8420000  
H 16.0100000   14.7950000   23.0580000  
H 15.0010000   13.9230000   24.2970000  
H 17.2020000   16.9650000   26.4350000  
H 19.7740000   20.2690000   24.2150000  
H 19.8030000   19.3150000   21.1520000  
C 19.0060000   18.9170000   25.8260000  
C 19.8570000   18.0740000   26.6240000  
C 20.3690000   18.5140000   27.7840000  
C 19.9770000   19.7040000   28.3560000  
C 19.2120000   20.6660000   27.6440000  
C 18.7230000   20.2310000   26.3910000  
C 20.4070000   16.7850000   26.3500000  
C 21.2730000   16.5510000   27.3830000  
N 21.2530000   17.6140000   28.3260000  
O 21.8440000   14.4220000   26.6630000  
C 21.9570000   15.2910000   27.6720000  
O 22.4530000   15.0090000   28.7200000  
O 18.9100000   21.8420000   28.1400000  
O 17.8790000   21.1320000   25.7360000  
H 20.2170000   16.0810000   25.5710000  
H 21.6970000   14.9640000   25.8400000  
H 21.8070000   17.7220000   29.1560000  
H 18.1900000   22.1810000   27.5290000  
H 17.3010000   20.6470000   25.2000000  
H 20.3880000   20.0400000   29.3120000  
