76
111 
C 13.8390000   15.2360000   15.0940000  
C 12.5600000   16.0500000   14.9800000  
C 12.3380000   17.0320000   15.9190000  
C 13.2120000   17.3090000   16.9590000  
C 14.3360000   16.6070000   17.2730000  
C 14.8190000   15.5400000   16.3570000  
C 11.2600000   17.8880000   16.1190000  
C 11.4700000   18.7210000   17.2030000  
N 12.6390000   18.2180000   17.8020000  
O  9.4750000   20.1160000   17.0680000  
C 10.6320000   19.8680000   17.6740000  
O 11.0350000   20.5160000   18.6390000  
O 15.9420000   14.9660000   16.4420000  
O 14.1010000   14.3670000   14.2570000  
H 11.8360000   15.7910000   14.2230000  
H 10.3650000   18.0040000   15.5730000  
H  9.3300000   19.4110000   16.4210000  
H 13.1310000   18.5650000   18.6130000  
C 15.0250000   16.9090000   18.5490000  
C 14.8230000   15.9720000   19.5840000  
C 15.3730000   16.2480000   20.8030000  
C 16.3350000   17.2330000   21.0630000  
C 16.6930000   18.0010000   20.0210000  
C 16.0010000   17.9700000   18.7690000  
C 14.2660000   14.6540000   19.7130000  
C 14.4770000   14.2390000   21.0340000  
N 15.1420000   15.2450000   21.7290000  
O 13.3620000   12.0500000   20.7500000  
C 14.0930000   12.8770000   21.5840000  
O 14.3580000   12.4360000   22.7230000  
O 17.5590000   19.0300000   20.2590000  
O 16.2840000   18.9580000   17.8840000  
H 13.5410000   14.1470000   19.0870000  
H 13.2190000   12.5920000   19.9530000  
H 15.3820000   15.2490000   22.6640000  
H 17.7370000   19.0090000   21.2340000  
H 17.0870000   19.4480000   18.1470000  
C 17.0640000   17.2480000   22.3490000  
C 18.0100000   16.2260000   22.6550000  
C 18.7330000   16.2100000   23.8050000  
C 18.5860000   17.1050000   24.8400000  
C 17.5190000   18.0560000   24.7010000  
C 16.8270000   18.1840000   23.4500000  
C 18.4740000   15.1540000   21.8160000  
C 19.4930000   14.5280000   22.5300000  
N 19.6180000   15.1740000   23.7960000  
O 19.8700000   12.7460000   20.9400000  
C 20.1720000   13.2720000   22.1570000  
O 21.0270000   12.7780000   22.8270000  
O 17.3050000   19.0670000   25.6520000  
O 16.1280000   19.2930000   23.2230000  
H 18.0840000   14.8130000   20.8700000  
H 19.1150000   13.2420000   20.6750000  
H 20.1610000   14.7440000   24.5780000  
H 18.0500000   19.1840000   26.1960000  
H 16.0800000   19.7570000   24.1450000  
C 19.3620000   16.9470000   26.0820000  
C 20.6700000   17.4880000   26.1410000  
C 21.4340000   17.2890000   27.3070000  
C 21.0200000   16.4820000   28.3410000  
C 19.6520000   16.0150000   28.3270000  
C 18.8620000   16.1860000   27.1740000  
C 21.4660000   18.4000000   25.3080000  
C 22.5940000   18.7510000   26.0400000  
N 22.5790000   18.1340000   27.2810000  
O 23.4570000   20.3710000   24.4390000  
C 23.6890000   19.6010000   25.5280000  
O 24.6790000   19.8140000   26.1980000  
O 19.1370000   15.2840000   29.3100000  
O 17.6070000   15.5780000   27.1410000  
H 21.1910000   18.7800000   24.2790000  
H 22.5280000   20.0770000   24.2320000  
H 23.2320000   18.1640000   27.9980000  
H 18.2230000   15.0990000   28.9680000  
H 17.4730000   15.2580000   26.2330000  
H 21.5530000   16.3380000   29.2350000  
