76
111 
C 19.1560000   10.2550000   18.5130000  
C 19.7860000   10.6080000   17.2560000  
C 20.0430000   11.9330000   17.0520000  
C 19.6090000   12.9870000   17.8330000  
C 18.9000000   12.8030000   18.9890000  
C 18.7940000   11.4140000   19.4850000  
C 20.6510000   12.5280000   15.9510000  
C 20.6500000   13.9370000   16.0410000  
N 20.0210000   14.1520000   17.2600000  
O 21.5200000   14.4730000   13.8460000  
C 20.9640000   14.9390000   14.9810000  
O 20.6930000   16.1000000   15.1040000  
O 18.5020000   11.1700000   20.6340000  
O 18.9350000    9.0790000   18.8760000  
H 20.0180000    9.7890000   16.5730000  
H 21.0780000   11.9160000   15.1910000  
H 21.8100000   13.5510000   14.0950000  
H 19.8920000   15.0420000   17.6920000  
C 18.5810000   14.0200000   19.7770000  
C 17.2840000   14.5530000   19.7330000  
C 16.9500000   15.6300000   20.4540000  
C 17.7690000   16.3750000   21.2430000  
C 19.1330000   15.8840000   21.3220000  
C 19.4860000   14.6690000   20.6880000  
C 16.1120000   14.2010000   19.0010000  
C 15.1250000   15.1140000   19.2630000  
N 15.6910000   16.0940000   20.1570000  
O 13.4760000   14.1650000   17.8930000  
C 13.7290000   15.1170000   18.7830000  
O 12.9200000   15.9150000   19.1080000  
O 19.9490000   16.4690000   22.1830000  
O 20.7330000   14.1050000   20.7780000  
H 15.9880000   13.2900000   18.4450000  
H 14.3210000   13.8100000   17.7780000  
H 15.1950000   16.8580000   20.6010000  
H 19.4010000   17.1680000   22.4580000  
H 21.3940000   14.7060000   21.1340000  
C 17.3060000   17.5770000   22.0560000  
C 16.1480000   17.3700000   22.9330000  
C 15.5580000   18.3930000   23.6530000  
C 15.9510000   19.6690000   23.4370000  
C 17.1350000   19.9240000   22.7430000  
C 17.8090000   18.9180000   21.9940000  
C 15.3690000   16.2530000   23.3060000  
C 14.3540000   16.6180000   24.1450000  
N 14.4290000   18.0180000   24.3660000  
O 13.6670000   14.4700000   24.7260000  
C 13.4050000   15.7910000   24.8480000  
O 12.4200000   16.2530000   25.4550000  
O 17.5560000   21.2040000   22.7340000  
O 18.8400000   19.2500000   21.1720000  
H 15.6200000   15.2400000   23.1520000  
H 14.4720000   14.5040000   24.2400000  
H 13.8980000   18.5800000   25.0010000  
H 17.1460000   21.8410000   23.4010000  
H 18.8160000   20.2500000   21.2330000  
C 15.1930000   20.6610000   24.2430000  
C 15.3630000   20.6860000   25.6980000  
C 14.7290000   21.6330000   26.4550000  
C 13.7320000   22.4500000   25.8510000  
C 13.6310000   22.5080000   24.4350000  
C 14.4220000   21.6300000   23.6220000  
C 16.2460000   19.9570000   26.5450000  
C 16.0610000   20.4820000   27.8810000  
N 15.0510000   21.4980000   27.8090000  
O 17.5640000   19.0050000   28.8220000  
C 16.7090000   20.0290000   29.0940000  
O 16.6100000   20.5310000   30.1530000  
O 12.7680000   23.3780000   23.9020000  
O 14.2800000   21.7820000   22.2410000  
H 16.9330000   19.1510000   26.3130000  
H 17.4000000   18.6770000   27.9120000  
H 14.7910000   22.1320000   28.5340000  
H 12.9640000   23.3270000   22.9510000  
H 14.3990000   20.9480000   21.8300000  
H 13.0990000   23.0890000   26.4220000  
