76
111 
C 10.9830000   18.5330000   17.4580000  
C 10.2730000   19.6150000   18.1730000  
C 10.7140000   20.0710000   19.3900000  
C 11.8510000   19.5870000   20.0280000  
C 12.5730000   18.5170000   19.5940000  
C 12.2540000   17.9010000   18.2400000  
C 10.2110000   21.1630000   20.2780000  
C 10.9340000   21.1490000   21.4620000  
N 11.8810000   20.0810000   21.2830000  
O  9.6760000   22.7370000   22.6910000  
C 10.7790000   21.9710000   22.6750000  
O 11.5170000   21.9610000   23.6320000  
O 12.9080000   16.9380000   17.9370000  
O 10.6280000   18.1500000   16.3700000  
H  9.3530000   20.0040000   17.7140000  
H  9.4590000   21.8690000   19.9480000  
H  9.0660000   22.4260000   22.0310000  
H 12.4910000   19.6440000   22.0400000  
C 13.7740000   18.1120000   20.3130000  
C 13.9170000   16.8030000   20.7370000  
C 15.0120000   16.3210000   21.3450000  
C 16.1760000   17.0980000   21.4720000  
C 16.1250000   18.4240000   20.9340000  
C 14.9110000   18.9040000   20.3130000  
C 12.9470000   15.7080000   20.6990000  
C 13.6630000   14.5940000   21.1780000  
N 14.8930000   15.0300000   21.6880000  
O 12.0250000   12.9930000   20.6880000  
C 13.2010000   13.2140000   21.2460000  
O 13.8290000   12.2780000   21.8320000  
O 17.2230000   19.2380000   20.8230000  
O 15.0250000   20.1660000   19.6980000  
H 11.9790000   15.6700000   20.2380000  
H 11.7840000   13.7970000   20.2400000  
H 15.6810000   14.5300000   22.1360000  
H 18.0230000   18.8310000   21.2100000  
H 15.9380000   20.4600000   19.6400000  
C 17.4230000   16.6180000   22.1680000  
C 18.0880000   15.4670000   21.6130000  
C 19.2370000   14.9350000   22.1760000  
C 19.8410000   15.4380000   23.3770000  
C 19.2220000   16.5810000   23.9170000  
C 18.1150000   17.1870000   23.3380000  
C 17.8470000   14.6400000   20.4560000  
C 18.8850000   13.7770000   20.2930000  
N 19.8450000   14.0020000   21.3220000  
O 18.0020000   12.5830000   18.4480000  
C 19.0790000   12.8040000   19.1840000  
O 20.0670000   12.1500000   18.9850000  
O 19.7260000   17.1760000   24.9810000  
O 17.6760000   18.3320000   23.9390000  
H 17.0170000   14.6930000   19.7180000  
H 17.3820000   13.3280000   18.6830000  
H 20.7740000   13.6340000   21.5000000  
H 20.7040000   16.8410000   25.1720000  
H 18.0030000   18.3190000   24.8750000  
C 21.1270000   14.9200000   23.9980000  
C 22.2820000   15.6940000   24.1060000  
C 23.3790000   15.1710000   24.7760000  
C 23.4840000   13.8240000   25.1160000  
C 22.3820000   13.0350000   24.9270000  
C 21.1870000   13.5610000   24.4070000  
C 22.6840000   17.0760000   23.7000000  
C 24.0370000   17.1810000   24.0310000  
N 24.4380000   16.0840000   24.7380000  
O 24.4040000   19.3090000   22.9470000  
C 24.8250000   18.4360000   23.8510000  
O 25.9000000   18.6190000   24.3730000  
O 22.4780000   11.7060000   25.0300000  
O 20.2100000   12.7000000   24.1460000  
H 21.9810000   17.8360000   23.2660000  
H 23.5420000   18.9500000   22.6030000  
H 25.3350000   15.8860000   25.0900000  
H 21.5890000   11.4130000   24.7610000  
H 19.2710000   13.0760000   24.1010000  
H 24.3780000   13.4090000   25.4860000  
