76
111 
C 14.2110000   16.4580000   14.8380000  
C 13.9200000   15.0240000   14.5760000  
C 13.8640000   14.1300000   15.6300000  
C 14.1320000   14.4770000   16.9400000  
C 14.7350000   15.6820000   17.2050000  
C 14.7750000   16.8230000   16.2670000  
C 13.6650000   12.6870000   15.6730000  
C 13.9430000   12.2070000   16.9620000  
N 14.1910000   13.3760000   17.7240000  
O 13.5260000    9.9420000   16.5790000  
C 13.9140000   10.7840000   17.4650000  
O 14.2400000   10.3940000   18.5610000  
O 15.1190000   17.9960000   16.5310000  
O 14.1020000   17.3050000   13.9970000  
H 13.7440000   14.7060000   13.5490000  
H 13.4650000   12.1680000   14.8020000  
H 13.2170000   10.4150000   15.7700000  
H 14.4830000   13.3570000   18.7070000  
C 15.2000000   15.8050000   18.5830000  
C 16.5610000   15.5650000   18.9500000  
C 17.0160000   15.8280000   20.1590000  
C 16.2280000   16.3010000   21.2330000  
C 14.8390000   16.4090000   20.9630000  
C 14.3380000   16.1090000   19.6780000  
C 17.6840000   15.2460000   18.1050000  
C 18.8500000   15.3300000   18.8600000  
N 18.3880000   15.7310000   20.1560000  
O 20.3590000   14.8520000   17.2180000  
C 20.2300000   15.1710000   18.4790000  
O 21.1480000   15.1910000   19.2310000  
O 14.0770000   16.9510000   21.9090000  
O 13.0110000   16.1710000   19.5530000  
H 17.6300000   14.8420000   17.0460000  
H 19.4270000   14.7650000   16.8900000  
H 18.9100000   15.8170000   21.0210000  
H 14.5130000   17.1220000   22.7730000  
H 12.6560000   16.5720000   20.3980000  
C 16.8940000   16.7220000   22.5300000  
C 17.9570000   17.6570000   22.4870000  
C 18.5020000   18.0840000   23.6990000  
C 18.1840000   17.7280000   24.9900000  
C 17.1900000   16.7160000   25.0170000  
C 16.4970000   16.2260000   23.8280000  
C 18.6340000   18.3950000   21.4210000  
C 19.6160000   19.1780000   22.0250000  
N 19.5150000   18.9980000   23.4060000  
O 20.5260000   20.0230000   20.0700000  
C 20.6440000   20.0390000   21.3800000  
O 21.5480000   20.6010000   21.9470000  
O 16.8490000   16.0800000   26.1690000  
O 15.5830000   15.2000000   23.8740000  
H 18.3840000   18.4110000   20.3830000  
H 19.8670000   19.3090000   20.0030000  
H 20.0740000   19.4070000   24.1020000  
H 17.3750000   16.5520000   26.8370000  
H 15.3130000   15.0650000   24.7940000  
C 18.8090000   18.2260000   26.1900000  
C 17.9040000   18.6980000   27.2260000  
C 18.3610000   19.0120000   28.4740000  
C 19.6760000   18.8610000   28.8480000  
C 20.5690000   18.3550000   27.8960000  
C 20.0930000   17.9750000   26.6220000  
C 16.4780000   19.0960000   27.2150000  
C 16.2030000   19.6990000   28.4370000  
N 17.2890000   19.4540000   29.2860000  
O 13.9440000   20.2730000   27.9350000  
C 14.9630000   20.3490000   28.7790000  
O 14.7700000   20.8260000   29.9060000  
O 21.8890000   18.2860000   28.2590000  
O 20.9500000   17.3160000   25.7650000  
H 15.7870000   18.9710000   26.3840000  
H 14.4450000   19.9740000   27.1400000  
H 17.2960000   19.7550000   30.2740000  
H 22.3420000   18.1790000   27.4480000  
H 20.4420000   17.0090000   25.0220000  
H 20.0450000   19.0570000   29.8450000  
