76
111 
C 16.0080000   11.6170000   16.1220000  
C 16.5010000   12.2940000   14.8790000  
C 16.8750000   13.6470000   14.9240000  
C 16.9620000   14.4080000   16.1390000  
C 16.5940000   13.8150000   17.4220000  
C 16.1820000   12.3640000   17.5280000  
C 17.4420000   14.5090000   13.9280000  
C 17.9510000   15.6560000   14.5380000  
N 17.6480000   15.5380000   15.8760000  
O 18.6210000   16.6290000   12.4520000  
C 18.3040000   16.8140000   13.7860000  
O 18.3460000   18.0270000   14.1990000  
O 15.9710000   11.7870000   18.5850000  
O 15.5150000   10.5020000   16.0440000  
H 16.5600000   11.7030000   14.0100000  
H 17.4370000   14.1950000   12.9290000  
H 18.6610000   15.6520000   12.3010000  
H 17.7560000   16.3630000   16.4510000  
C 16.8460000   14.6720000   18.5970000  
C 15.7270000   15.0860000   19.3600000  
C 15.9060000   16.0010000   20.3550000  
C 17.1250000   16.4070000   20.8530000  
C 18.2780000   15.9420000   20.1740000  
C 18.1170000   15.0800000   19.0240000  
C 14.3280000   14.9000000   19.1340000  
C 13.6620000   15.7420000   20.0750000  
N 14.6860000   16.3810000   20.8410000  
O 11.4210000   15.1960000   19.4310000  
C 12.1850000   15.9050000   20.2620000  
O 11.7390000   16.6750000   21.1100000  
O 19.4980000   16.3770000   20.6310000  
O 19.2260000   14.6350000   18.3630000  
H 13.8000000   14.2170000   18.4710000  
H 12.0540000   14.5690000   18.9280000  
H 14.4740000   16.8790000   21.6650000  
H 19.3760000   17.1700000   21.0750000  
H 19.9570000   15.0050000   18.8660000  
C 17.1080000   17.3630000   22.1090000  
C 16.4590000   17.0030000   23.2690000  
C 16.3420000   17.8640000   24.3880000  
C 17.0700000   19.0650000   24.5130000  
C 17.7130000   19.4900000   23.3140000  
C 17.7030000   18.6570000   22.1420000  
C 15.8470000   15.7680000   23.7690000  
C 15.4110000   15.9490000   25.0320000  
N 15.7740000   17.2060000   25.4640000  
O 14.3770000   13.8320000   25.1790000  
C 14.6750000   15.0000000   25.8360000  
O 14.4490000   15.2330000   27.0420000  
O 18.4470000   20.6590000   23.3550000  
O 18.4060000   19.0920000   21.0450000  
H 15.6950000   14.8890000   23.1830000  
H 14.7530000   13.8580000   24.2780000  
H 15.8420000   17.6610000   26.3340000  
H 18.5950000   20.8700000   24.2750000  
H 18.7780000   19.9510000   21.2740000  
C 17.3040000   19.8350000   25.8510000  
C 18.3280000   19.4800000   26.7540000  
C 18.6120000   20.2050000   27.8680000  
C 17.9270000   21.3940000   28.2180000  
C 16.9240000   21.8260000   27.3120000  
C 16.6470000   21.0710000   26.1290000  
C 19.2380000   18.3360000   26.7810000  
C 19.8660000   18.4360000   27.9920000  
N 19.5020000   19.6220000   28.6970000  
O 21.0000000   16.4460000   27.8930000  
C 20.8050000   17.4910000   28.7130000  
O 21.3140000   17.6350000   29.8080000  
O 16.1470000   22.9030000   27.6050000  
O 15.7250000   21.4920000   25.2550000  
H 19.3140000   17.5630000   26.1140000  
H 20.4140000   16.5730000   27.1870000  
H 19.6530000   19.8060000   29.6860000  
H 15.8850000   23.3120000   26.7620000  
H 15.6900000   20.7440000   24.5500000  
H 18.1220000   21.8800000   29.1940000  
