76
111 
C 12.7700000   18.5180000   27.7530000  
C 12.7130000   19.9530000   27.8410000  
C 13.3210000   20.7390000   26.8820000  
C 14.0400000   20.2060000   25.8320000  
C 14.1490000   18.8680000   25.6140000  
C 13.5810000   17.9070000   26.5920000  
C 13.2690000   22.1390000   26.5760000  
C 14.0000000   22.4380000   25.3850000  
N 14.4620000   21.1960000   24.9760000  
O 13.2170000   24.6110000   25.2100000  
C 14.0470000   23.7110000   24.6710000  
O 14.6990000   23.9310000   23.6460000  
O 13.7010000   16.6930000   26.5530000  
O 12.3980000   17.6770000   28.5540000  
H 12.1580000   20.4150000   28.6490000  
H 12.7550000   22.8860000   27.2100000  
H 12.6360000   24.1260000   25.8720000  
H 15.0140000   21.1340000   24.1250000  
C 14.9380000   18.4280000   24.4360000  
C 16.2630000   17.9180000   24.5610000  
C 16.9350000   17.4240000   23.4750000  
C 16.4350000   17.5200000   22.1440000  
C 15.0640000   17.9020000   21.9600000  
C 14.3720000   18.4080000   23.1440000  
C 17.1690000   17.6840000   25.6540000  
C 18.3110000   17.0950000   25.2380000  
N 18.1690000   16.9080000   23.8100000  
O 19.4250000   16.9140000   27.3830000  
C 19.4770000   16.5950000   26.0410000  
O 20.4150000   15.9420000   25.5690000  
O 14.4830000   17.9170000   20.7260000  
O 13.0730000   18.8810000   22.9750000  
H 16.8860000   17.8930000   26.7280000  
H 18.7080000   17.5270000   27.5500000  
H 18.8150000   16.4320000   23.1860000  
H 15.2220000   17.7800000   20.1550000  
H 12.8880000   18.6050000   22.0040000  
C 17.2260000   17.0080000   20.9500000  
C 17.7130000   15.6810000   20.9810000  
C 18.4810000   15.1640000   20.0190000  
C 18.7180000   15.7500000   18.7720000  
C 18.2380000   17.0870000   18.6840000  
C 17.5130000   17.7150000   19.7330000  
C 17.4610000   14.5880000   21.9730000  
C 18.2380000   13.4830000   21.5270000  
N 18.8030000   13.9050000   20.2820000  
O 17.0820000   12.0130000   22.9580000  
C 18.1030000   12.1450000   22.0400000  
O 18.7490000   11.2370000   21.7990000  
O 18.3660000   17.7920000   17.5360000  
O 17.0650000   18.9460000   19.6930000  
H 16.7140000   14.6460000   22.7020000  
H 16.9030000   12.9270000   23.1710000  
H 19.4160000   13.3900000   19.7230000  
H 18.6530000   17.1610000   16.8940000  
H 17.0940000   19.1550000   18.7100000  
C 19.4620000   15.0200000   17.6640000  
C 18.9750000   13.9440000   16.8460000  
C 19.7570000   13.4150000   15.8140000  
C 21.0710000   13.8230000   15.5700000  
C 21.6560000   14.8130000   16.4490000  
C 20.8600000   15.3910000   17.4840000  
C 17.6820000   13.3270000   16.8460000  
C 17.7390000   12.4660000   15.7450000  
N 19.0380000   12.5040000   15.1500000  
O 15.5980000   11.6600000   15.9640000  
C 16.7350000   11.4860000   15.2900000  
O 16.9390000   10.6140000   14.4480000  
O 23.0510000   15.0080000   16.3600000  
O 21.3850000   16.3330000   18.3560000  
H 16.8240000   13.6320000   17.4560000  
H 15.7690000   12.3850000   16.4840000  
H 19.3040000   11.8860000   14.4070000  
H 23.4580000   15.4330000   17.1880000  
H 20.6400000   16.6160000   18.9330000  
H 21.7130000   13.3100000   14.8360000  
