76
111 
C 17.3500000   18.9310000   29.2790000  
C 18.7530000   18.6080000   29.5930000  
C 19.5770000   18.1700000   28.5810000  
C 19.1740000   18.0720000   27.2810000  
C 17.8790000   18.0580000   26.8430000  
C 16.8200000   18.5090000   27.7780000  
C 20.9410000   17.7720000   28.6440000  
C 21.3370000   17.3880000   27.3780000  
N 20.2520000   17.5970000   26.5700000  
O 23.5460000   16.7380000   27.9520000  
C 22.6380000   16.8190000   26.9310000  
O 22.8800000   16.4260000   25.8260000  
O 15.6640000   18.3950000   27.5370000  
O 16.6450000   19.5100000   30.0760000  
H 18.9560000   18.6540000   30.6560000  
H 21.5010000   17.8520000   29.6050000  
H 23.0660000   17.1120000   28.7420000  
H 20.1370000   17.2940000   25.6450000  
C 17.7040000   17.8370000   25.3840000  
C 17.7060000   16.5690000   24.7830000  
C 17.5250000   16.4190000   23.4350000  
C 17.2790000   17.4430000   22.5030000  
C 17.3740000   18.7780000   23.0700000  
C 17.4590000   18.9210000   24.4830000  
C 17.7380000   15.2080000   25.3490000  
C 17.5040000   14.3950000   24.3020000  
N 17.4630000   15.0740000   23.0950000  
O 17.8370000   12.4210000   25.6560000  
C 17.5060000   12.9060000   24.3910000  
O 17.2070000   12.1780000   23.4190000  
O 17.1860000   19.8300000   22.2270000  
O 17.3330000   20.1860000   25.0350000  
H 17.6860000   14.8540000   26.4260000  
H 17.8340000   13.2070000   26.2300000  
H 17.2210000   14.6400000   22.1980000  
H 17.2350000   19.4570000   21.2900000  
H 17.4000000   20.9150000   24.3330000  
C 16.9920000   17.1590000   21.0230000  
C 15.8610000   16.3620000   20.5470000  
C 15.6050000   16.0900000   19.2310000  
C 16.4830000   16.4030000   18.1290000  
C 17.6160000   17.2200000   18.6140000  
C 17.8050000   17.5530000   19.9360000  
C 14.6750000   15.8500000   21.2860000  
C 13.9700000   15.1580000   20.3690000  
N 14.4480000   15.3610000   19.0730000  
O 12.5680000   14.0970000   21.9860000  
C 12.9030000   14.1740000   20.6630000  
O 12.2880000   13.5890000   19.7720000  
O 18.5630000   17.5940000   17.6900000  
O 18.9010000   18.3430000   20.1780000  
H 14.5480000   15.7900000   22.3440000  
H 13.1450000   14.6790000   22.4920000  
H 14.1980000   14.7880000   18.3210000  
H 18.1260000   17.3810000   16.8200000  
H 19.5490000   18.3650000   19.3750000  
C 16.1980000   16.0630000   16.7370000  
C 15.1420000   16.6470000   15.9140000  
C 15.1090000   16.3870000   14.5340000  
C 16.1410000   15.6400000   13.9400000  
C 17.1700000   15.0150000   14.6590000  
C 17.1050000   15.1900000   16.1000000  
C 14.0140000   17.5490000   16.2440000  
C 13.3790000   17.7630000   14.9820000  
N 14.1170000   17.0930000   13.9480000  
O 11.6820000   19.0940000   15.9860000  
C 12.1410000   18.5610000   14.7660000  
O 11.5500000   18.7120000   13.6900000  
O 18.1410000   14.3350000   14.0260000  
O 18.1380000   14.5600000   16.8540000  
H 13.8160000   18.0550000   17.1900000  
H 12.4720000   19.0070000   16.5220000  
H 14.0120000   17.2660000   12.9790000  
H 18.6180000   13.9880000   14.7760000  
H 17.8700000   14.5870000   17.7800000  
H 16.1100000   15.5160000   12.8670000  
