76
111 
C 21.3090000   11.5050000   17.9410000  
C 20.3360000   11.2200000   16.8800000  
C 19.2370000   11.9230000   16.7720000  
C 18.9500000   13.0420000   17.5470000  
C 19.6670000   13.4540000   18.6430000  
C 20.9170000   12.6610000   18.9250000  
C 18.2350000   12.0320000   15.6930000  
C 17.3710000   13.1470000   15.8870000  
N 17.8520000   13.6800000   17.1260000  
O 16.0170000   12.7700000   13.9090000  
C 16.2080000   13.4670000   15.0140000  
O 15.4270000   14.3290000   15.2810000  
O 21.7590000   13.0490000   19.7690000  
O 22.3020000   10.8460000   18.0690000  
H 20.6610000   10.5040000   16.1430000  
H 18.0630000   11.3650000   14.9270000  
H 16.6790000   12.1020000   13.9220000  
H 17.6050000   14.5870000   17.5650000  
C 19.1680000   14.5630000   19.5140000  
C 17.9190000   14.3790000   20.1520000  
C 17.2580000   15.4110000   20.7660000  
C 17.7380000   16.7830000   20.8340000  
C 19.0060000   16.9610000   20.2810000  
C 19.7070000   15.8870000   19.6290000  
C 16.9720000   13.2320000   20.1650000  
C 15.9140000   13.6600000   20.9490000  
N 16.0940000   14.9750000   21.2630000  
O 14.6800000   11.6480000   20.8780000  
C 14.7260000   12.8840000   21.3650000  
O 13.8640000   13.3750000   22.0690000  
O 19.6690000   18.2130000   20.4940000  
O 20.9740000   16.1220000   19.1070000  
H 17.1250000   12.1910000   19.7810000  
H 15.4610000   11.6410000   20.3120000  
H 15.3570000   15.5670000   21.5490000  
H 19.0360000   18.7890000   21.0420000  
H 21.2600000   16.9880000   19.3500000  
C 17.0350000   17.7710000   21.7520000  
C 16.7770000   17.4340000   23.0870000  
C 15.9480000   18.2180000   23.8580000  
C 15.4020000   19.4410000   23.5380000  
C 15.6390000   19.8050000   22.1750000  
C 16.4120000   18.9870000   21.3030000  
C 17.2050000   16.2850000   23.8740000  
C 16.6050000   16.4460000   25.1130000  
N 15.7500000   17.5960000   25.0890000  
O 17.4690000   14.4810000   26.0630000  
C 16.7780000   15.5970000   26.3090000  
O 16.1800000   15.7020000   27.3840000  
O 15.0450000   20.9270000   21.6610000  
O 16.7210000   19.4220000   20.0480000  
H 17.8670000   15.4980000   23.6010000  
H 17.6410000   14.4280000   25.1340000  
H 15.2900000   18.0790000   25.8470000  
H 14.4820000   21.3700000   22.3220000  
H 16.0160000   20.0670000   19.7320000  
C 14.5360000   20.2620000   24.3890000  
C 15.1310000   21.2720000   25.1030000  
C 14.4300000   21.9680000   26.0110000  
C 13.0210000   21.7390000   26.2020000  
C 12.4280000   20.6730000   25.4720000  
C 13.1920000   19.9080000   24.6050000  
C 16.5070000   21.6460000   25.2040000  
C 16.6070000   22.6370000   26.1000000  
N 15.2850000   22.8220000   26.6530000  
O 18.9900000   22.8970000   26.0260000  
C 17.8990000   23.1960000   26.7230000  
O 17.9550000   23.8820000   27.7010000  
O 11.2300000   20.1810000   25.8830000  
O 12.5980000   18.8370000   24.0020000  
H 17.3000000   21.2020000   24.6340000  
H 18.7420000   22.1660000   25.4350000  
H 15.0880000   23.3300000   27.4880000  
H 10.9020000   19.6110000   25.1800000  
H 13.2100000   18.6750000   23.3060000  
H 12.5270000   22.2700000   26.9750000  
