76
111 
C 12.9050000   13.3310000   15.9600000  
C 14.0440000   12.8450000   15.1460000  
C 15.3010000   13.2140000   15.4140000  
C 15.6930000   13.8820000   16.6140000  
C 14.7960000   14.4540000   17.4610000  
C 13.3210000   14.2120000   17.2320000  
C 16.5490000   12.7910000   14.7720000  
C 17.5810000   13.3050000   15.5830000  
N 17.0180000   14.0330000   16.6180000  
O 19.2820000   12.1330000   14.2660000  
C 19.0040000   13.0790000   15.2100000  
O 19.9710000   13.6610000   15.7630000  
O 12.4080000   14.6360000   17.9050000  
O 11.7580000   12.9440000   15.7320000  
H 13.8810000   12.1460000   14.3380000  
H 16.6420000   12.0330000   13.9600000  
H 18.4300000   11.8620000   13.9890000  
H 17.5600000   14.4270000   17.3760000  
C 15.3670000   15.0550000   18.6420000  
C 15.6670000   16.4310000   18.7780000  
C 16.2830000   17.0140000   19.8620000  
C 16.6090000   16.2700000   20.9990000  
C 16.4260000   14.8250000   20.8780000  
C 15.7540000   14.2890000   19.7290000  
C 15.3780000   17.5500000   17.8940000  
C 15.7710000   18.7080000   18.5580000  
N 16.5340000   18.3250000   19.6670000  
O 14.7470000   20.2790000   17.1150000  
C 15.5600000   20.0930000   18.1390000  
O 16.0610000   21.0170000   18.7520000  
O 16.8160000   13.9880000   21.9310000  
O 15.4790000   12.9790000   19.6320000  
H 14.7550000   17.4260000   17.0530000  
H 14.6060000   19.3860000   16.7590000  
H 17.1040000   18.9290000   20.3200000  
H 17.1600000   14.6640000   22.5820000  
H 15.8170000   12.4990000   20.3970000  
C 17.2550000   16.9590000   22.1800000  
C 16.4900000   17.5100000   23.1750000  
C 17.1190000   18.0480000   24.2400000  
C 18.4890000   18.0680000   24.5120000  
C 19.2680000   17.3830000   23.5480000  
C 18.6590000   16.7780000   22.3960000  
C 15.0840000   17.6370000   23.4860000  
C 14.9330000   18.4640000   24.6100000  
N 16.2310000   18.7730000   25.0450000  
O 12.5950000   18.4620000   24.6670000  
C 13.6980000   18.9280000   25.2570000  
O 13.6310000   19.5120000   26.3270000  
O 20.6200000   17.0290000   23.7900000  
O 19.4720000   15.9930000   21.5520000  
H 14.2440000   17.1310000   23.0090000  
H 12.8620000   17.8830000   23.8980000  
H 16.3900000   19.1850000   25.9530000  
H 20.9070000   17.2790000   24.7290000  
H 20.4160000   16.1680000   21.8000000  
C 19.1050000   18.8590000   25.6330000  
C 18.9880000   18.4470000   26.9910000  
C 19.7160000   19.0950000   28.0070000  
C 20.4790000   20.2330000   27.7130000  
C 20.6230000   20.7050000   26.4130000  
C 19.9040000   19.9620000   25.3880000  
C 18.2670000   17.2970000   27.5640000  
C 18.5190000   17.4000000   28.9220000  
N 19.4620000   18.4040000   29.1570000  
O 17.2170000   15.4780000   29.6490000  
C 18.0410000   16.4820000   30.0070000  
O 18.4100000   16.6050000   31.1720000  
O 21.4520000   21.7680000   26.1100000  
O 20.2660000   20.1580000   24.0140000  
H 17.6880000   16.5480000   27.0730000  
H 17.2030000   15.6570000   28.6550000  
H 20.0100000   18.3780000   29.9740000  
H 21.7270000   21.5820000   25.1650000  
H 19.7470000   19.4880000   23.5120000  
H 20.9830000   20.7200000   28.5500000  
