76
111 
C 19.4290000   14.6010000   28.5950000  
C 20.6360000   15.4160000   28.8410000  
C 20.8920000   16.4800000   27.9900000  
C 20.1400000   16.7690000   26.8650000  
C 19.0310000   16.0860000   26.4900000  
C 18.6470000   14.9300000   27.2600000  
C 21.9830000   17.4370000   27.9170000  
C 21.7990000   18.2880000   26.8500000  
N 20.6670000   17.8150000   26.2110000  
O 23.7140000   19.5980000   27.2540000  
C 22.6480000   19.4780000   26.4860000  
O 22.4240000   20.2190000   25.5580000  
O 17.6770000   14.2690000   26.9600000  
O 19.0330000   13.7850000   29.4540000  
H 21.2600000   15.2250000   29.7100000  
H 22.7700000   17.5790000   28.6400000  
H 23.6570000   18.8700000   27.8540000  
H 20.1970000   18.3280000   25.4680000  
C 18.4600000   16.3870000   25.1610000  
C 18.7510000   15.5560000   24.0870000  
C 18.1090000   15.8820000   22.9620000  
C 17.2130000   16.9550000   22.6330000  
C 17.1050000   17.8800000   23.7180000  
C 17.6860000   17.5440000   24.9580000  
C 19.6460000   14.4750000   23.8790000  
C 19.4450000   14.1200000   22.5700000  
N 18.4200000   14.9350000   22.0060000  
O 20.6530000   12.1220000   22.6090000  
C 19.9440000   12.9600000   21.8340000  
O 19.7140000   12.7600000   20.6290000  
O 16.3980000   19.0930000   23.6350000  
O 17.3180000   18.2670000   26.0370000  
H 20.3310000   14.0260000   24.5800000  
H 20.4850000   12.5200000   23.4820000  
H 17.9430000   14.8740000   21.0900000  
H 16.0600000   19.1930000   22.7110000  
H 16.8550000   19.0100000   25.7150000  
C 16.6570000   17.2110000   21.2260000  
C 15.8820000   16.2000000   20.6050000  
C 15.3070000   16.4580000   19.3710000  
C 15.4960000   17.5890000   18.5670000  
C 16.3710000   18.5210000   19.1830000  
C 16.8940000   18.3880000   20.4670000  
C 15.4410000   14.9700000   21.0470000  
C 14.6250000   14.4150000   20.0430000  
N 14.5510000   15.3800000   18.9530000  
O 13.9440000   12.4150000   21.1520000  
C 13.8560000   13.1560000   20.0020000  
O 13.1930000   12.7110000   19.0870000  
O 16.5820000   19.7670000   18.5390000  
O 17.8030000   19.2560000   20.9220000  
H 15.5810000   14.5390000   22.0590000  
H 14.7090000   12.7360000   21.6990000  
H 13.8100000   15.4010000   18.2770000  
H 15.8690000   19.8490000   17.8470000  
H 18.2750000   19.7310000   20.1920000  
C 14.9110000   17.8800000   17.2330000  
C 13.5180000   17.9830000   17.0230000  
C 13.0140000   18.3870000   15.8250000  
C 13.8280000   18.4660000   14.6870000  
C 15.2200000   18.4740000   14.8320000  
C 15.7810000   18.1130000   16.0540000  
C 12.3670000   17.8870000   17.9000000  
C 11.2460000   18.2260000   17.0870000  
N 11.6540000   18.6210000   15.8220000  
O  9.7270000   17.6200000   18.7820000  
C  9.8450000   18.1500000   17.5390000  
O  8.9290000   18.4380000   16.7720000  
O 16.0550000   18.6900000   13.8300000  
O 17.1410000   17.9880000   16.2910000  
H 12.4180000   17.3830000   18.8980000  
H 10.5940000   17.2920000   18.9700000  
H 11.0670000   19.1050000   15.1360000  
H 16.8110000   19.1340000   14.2310000  
H 17.3280000   17.7060000   17.1930000  
H 13.4640000   18.6930000   13.7090000  
