76
111 
C 15.4700000   15.0520000   14.3030000  
C 15.3050000   13.5930000   14.4480000  
C 15.4970000   12.9810000   15.6480000  
C 15.6200000   13.6530000   16.8710000  
C 15.6680000   15.0230000   16.9680000  
C 15.5990000   15.8410000   15.7210000  
C 15.4870000   11.6150000   16.0190000  
C 15.6830000   11.5410000   17.4400000  
N 15.6900000   12.8130000   17.9100000  
O 15.2540000    9.1730000   17.5650000  
C 15.6280000   10.3200000   18.2120000  
O 16.0000000   10.3710000   19.4120000  
O 15.5670000   17.0680000   15.7190000  
O 15.2740000   15.6720000   13.2740000  
H 15.1550000   12.8940000   13.5310000  
H 15.4710000   10.8110000   15.3370000  
H 14.7890000    9.3980000   16.7090000  
H 15.6500000   13.0630000   18.8780000  
C 15.8550000   15.5950000   18.2850000  
C 17.0890000   15.4590000   18.8520000  
C 17.2990000   15.8890000   20.1240000  
C 16.3770000   16.6310000   20.8740000  
C 15.1260000   16.8310000   20.2680000  
C 14.8990000   16.3770000   18.9250000  
C 18.3550000   14.9110000   18.4250000  
C 19.1640000   14.8460000   19.5640000  
N 18.5000000   15.4690000   20.6210000  
O 21.1180000   13.9680000   18.4730000  
C 20.5680000   14.4060000   19.6640000  
O 21.2290000   14.2890000   20.6460000  
O 14.1240000   17.4270000   20.9630000  
O 13.6670000   16.5040000   18.4250000  
H 18.5850000   14.5220000   17.3970000  
H 20.4180000   13.7980000   17.8330000  
H 18.8870000   15.5170000   21.5790000  
H 14.4650000   17.4780000   21.9430000  
H 13.0920000   16.7900000   19.1730000  
C 16.6310000   16.9050000   22.3540000  
C 17.3450000   18.0640000   22.6860000  
C 17.5990000   18.4400000   23.9640000  
C 17.2250000   17.6670000   25.0580000  
C 16.6550000   16.3800000   24.7310000  
C 16.3040000   16.0020000   23.4130000  
C 17.9090000   19.0740000   21.8740000  
C 18.5080000   20.0160000   22.7940000  
N 18.2890000   19.5930000   24.1440000  
O 19.0740000   21.4110000   20.9760000  
C 19.2220000   21.2250000   22.3620000  
O 19.7320000   22.0320000   23.1370000  
O 16.3460000   15.5090000   25.6510000  
O 15.6900000   14.8600000   23.1280000  
H 17.9660000   19.1190000   20.7850000  
H 18.3150000   20.8770000   20.6930000  
H 18.6090000   19.9750000   25.0900000  
H 16.4200000   16.0870000   26.4420000  
H 15.2560000   14.6750000   23.9720000  
C 17.4550000   18.0540000   26.4930000  
C 16.7620000   19.1150000   27.1110000  
C 17.2940000   19.6990000   28.2470000  
C 18.4540000   19.2300000   28.9050000  
C 19.1260000   18.1760000   28.3500000  
C 18.6590000   17.6070000   27.1680000  
C 15.6350000   19.8310000   26.6810000  
C 15.6270000   20.9720000   27.4390000  
N 16.5240000   20.7780000   28.5780000  
O 13.9730000   22.1780000   26.2270000  
C 14.8470000   22.1630000   27.2400000  
O 14.9380000   23.1710000   27.8960000  
O 20.1870000   17.6090000   28.9640000  
O 19.4330000   16.6600000   26.5170000  
H 15.0280000   19.5790000   25.7670000  
H 13.9850000   21.3640000   25.7330000  
H 16.6640000   21.4200000   29.3270000  
H 20.3520000   16.8380000   28.4440000  
H 19.3320000   16.6330000   25.5630000  
H 18.8500000   19.7720000   29.7480000  
