76
111 
C 11.0290000   21.4930000   21.4590000  
C 10.7770000   21.8780000   22.8200000  
C 11.5150000   21.2980000   23.7970000  
C 12.4730000   20.3630000   23.5500000  
C 13.0240000   20.0380000   22.3150000  
C 12.2850000   20.5870000   21.1610000  
C 11.3620000   21.4100000   25.2490000  
C 12.2730000   20.4920000   25.8020000  
N 12.9530000   19.9170000   24.7890000  
O 11.7620000   20.9450000   28.1150000  
C 12.6150000   20.2660000   27.2540000  
O 13.5530000   19.5760000   27.7000000  
O 12.6390000   20.3540000   20.0100000  
O 10.4470000   21.9840000   20.5240000  
H  9.9170000   22.5510000   22.9910000  
H 10.7100000   22.1210000   25.6910000  
H 10.9770000   21.1500000   27.5280000  
H 13.6030000   19.1900000   24.9170000  
C 14.2490000   19.1910000   22.2970000  
C 14.1440000   17.8320000   21.8890000  
C 15.2040000   17.0760000   21.8510000  
C 16.4980000   17.4220000   22.2780000  
C 16.6280000   18.7480000   22.7560000  
C 15.5640000   19.6450000   22.7180000  
C 13.0230000   17.1640000   21.3120000  
C 13.4750000   15.8660000   21.0730000  
N 14.8370000   15.8120000   21.4200000  
O 11.4620000   14.9720000   20.5700000  
C 12.7430000   14.6810000   20.6990000  
O 13.2340000   13.5990000   20.4800000  
O 17.8390000   19.1710000   23.0370000  
O 15.6590000   20.9040000   23.2080000  
H 11.9490000   17.4130000   21.3080000  
H 11.5010000   15.8990000   20.7710000  
H 15.4820000   15.0650000   21.4000000  
H 18.4550000   18.4450000   23.0510000  
H 16.6310000   21.0130000   23.3240000  
C 17.5750000   16.4030000   22.1480000  
C 17.7680000   15.7360000   20.9440000  
C 18.7860000   14.8290000   20.8010000  
C 19.6440000   14.3650000   21.8160000  
C 19.4860000   15.0310000   23.0740000  
C 18.4520000   15.9660000   23.2230000  
C 17.1900000   15.9010000   19.6130000  
C 17.8570000   14.9660000   18.7940000  
N 18.7500000   14.2270000   19.5650000  
O 16.5920000   15.3550000   16.8390000  
C 17.6180000   14.6100000   17.3950000  
O 18.2070000   13.7980000   16.7450000  
O 20.3600000   14.6430000   24.0510000  
O 18.4550000   16.5140000   24.4710000  
H 16.3310000   16.5030000   19.3790000  
H 16.2820000   15.8260000   17.5960000  
H 19.2870000   13.3990000   19.1960000  
H 21.1440000   14.1360000   23.7250000  
H 19.0400000   15.9080000   24.9100000  
C 20.7930000   13.4680000   21.4620000  
C 21.9740000   14.0220000   20.9830000  
C 23.1010000   13.2490000   20.6770000  
C 23.0390000   11.8080000   20.8790000  
C 21.8690000   11.2530000   21.4140000  
C 20.7770000   12.1140000   21.7860000  
C 22.2100000   15.3070000   20.3110000  
C 23.5130000   15.2830000   19.7490000  
N 24.0840000   14.0520000   20.1020000  
O 23.5420000   17.4900000   18.6850000  
C 24.2440000   16.3300000   18.9170000  
O 25.3160000   16.1340000   18.3880000  
O 21.8470000    9.9060000   21.6760000  
O 19.7050000   11.5530000   22.3800000  
H 21.4580000   16.0650000   20.1480000  
H 22.7340000   17.2030000   19.0800000  
H 24.9980000   13.8320000   19.7490000  
H 20.9360000    9.6070000   21.4980000  
H 19.0850000   12.2600000   22.4520000  
H 23.8500000   11.2140000   20.5860000  
