76
111 
C 15.6940000   17.2500000   29.0870000  
C 16.0490000   18.6250000   29.4850000  
C 16.3840000   19.4850000   28.4890000  
C 16.5410000   19.1850000   27.1390000  
C 16.3350000   17.9390000   26.6940000  
C 15.9170000   16.9020000   27.5850000  
C 16.7440000   20.8450000   28.5770000  
C 17.2000000   21.3060000   27.3500000  
N 17.0820000   20.2430000   26.4350000  
O 17.3690000   23.5670000   28.1380000  
C 17.5420000   22.7730000   27.1170000  
O 17.8710000   23.1880000   26.0300000  
O 15.8040000   15.7710000   27.1130000  
O 15.3000000   16.4640000   29.9190000  
H 15.9040000   18.9050000   30.5390000  
H 16.6610000   21.3350000   29.5050000  
H 17.1500000   22.9850000   28.8250000  
H 17.2400000   20.3410000   25.4380000  
C 16.4960000   17.8090000   25.2250000  
C 17.6140000   17.1420000   24.7470000  
C 17.7840000   16.8920000   23.4030000  
C 16.8440000   17.3040000   22.3970000  
C 15.7110000   18.0050000   22.8810000  
C 15.4510000   18.1990000   24.2680000  
C 18.5850000   16.2770000   25.3930000  
C 19.2930000   15.6280000   24.3430000  
N 18.7920000   16.0090000   23.1270000  
O 20.7780000   14.5060000   25.7550000  
C 20.3970000   14.6290000   24.4930000  
O 20.9170000   14.0900000   23.5600000  
O 14.7210000   18.5040000   22.0160000  
O 14.3320000   18.8580000   24.6960000  
H 18.6510000   16.2530000   26.4800000  
H 20.1260000   15.0490000   26.2200000  
H 19.0090000   15.7100000   22.1990000  
H 14.8820000   18.1620000   21.1430000  
H 13.7540000   18.8230000   23.8510000  
C 17.0280000   17.0570000   20.9660000  
C 16.9570000   15.7450000   20.4880000  
C 17.1480000   15.5110000   19.1350000  
C 17.3470000   16.4480000   18.1150000  
C 17.4280000   17.7760000   18.5990000  
C 17.3810000   18.0720000   20.0160000  
C 16.6240000   14.5070000   21.0380000  
C 16.6970000   13.5220000   20.0920000  
N 17.0910000   14.1510000   18.8390000  
O 15.9240000   11.7940000   21.5170000  
C 16.4910000   12.1120000   20.3050000  
O 16.7110000   11.2700000   19.5010000  
O 17.5900000   18.8940000   17.7660000  
O 17.4370000   19.3930000   20.3280000  
H 16.2640000   14.3600000   22.0340000  
H 15.9550000   12.5270000   22.1300000  
H 17.2270000   13.8530000   17.8620000  
H 17.2840000   18.8050000   16.8240000  
H 17.4980000   19.8680000   19.4520000  
C 17.5470000   16.0270000   16.6950000  
C 16.5110000   15.4330000   16.0010000  
C 16.6610000   15.0380000   14.7130000  
C 17.8820000   15.0600000   14.1000000  
C 18.9920000   15.4830000   14.7970000  
C 18.8460000   15.9980000   16.0890000  
C 15.1790000   15.3960000   16.3930000  
C 14.5230000   14.8390000   15.3450000  
N 15.4440000   14.5290000   14.3480000  
O 12.3270000   14.7380000   16.4870000  
C 13.1070000   14.3410000   15.4180000  
O 12.5270000   13.7840000   14.5180000  
O 20.2520000   15.3710000   14.2650000  
O 19.9130000   16.4000000   16.8020000  
H 14.8130000   15.9960000   17.2220000  
H 13.0420000   15.1280000   17.0450000  
H 15.2190000   13.9190000   13.6230000  
H 20.6950000   15.8790000   14.9340000  
H 19.6890000   16.4420000   17.7620000  
H 18.0110000   14.7500000   13.0780000  
