76
111 
C 23.6500000   13.0380000   21.9280000  
C 23.2920000   11.7670000   21.2980000  
C 22.0010000   11.4790000   20.9880000  
C 20.9730000   12.3700000   21.2310000  
C 21.1450000   13.6600000   21.6660000  
C 22.4890000   14.1030000   22.0770000  
C 21.4480000   10.2960000   20.3700000  
C 20.0690000   10.5630000   20.1270000  
N 19.8850000   11.8590000   20.6530000  
O 19.4170000    8.6370000   19.1380000  
C 18.9580000    9.8560000   19.4660000  
O 17.8660000   10.3380000   19.2420000  
O 22.8040000   15.2080000   22.5340000  
O 24.8280000   13.3480000   22.2570000  
H 24.0470000   11.0390000   21.1310000  
H 22.0000000    9.2960000   20.2930000  
H 20.3060000    8.6160000   19.5190000  
H 19.0190000   12.3210000   20.5700000  
C 20.0480000   14.5400000   21.7220000  
C 19.4580000   14.7820000   22.9500000  
C 18.3910000   15.6570000   23.0900000  
C 17.7320000   16.3250000   21.9790000  
C 18.3750000   16.0290000   20.7220000  
C 19.4550000   15.1130000   20.5980000  
C 19.8040000   14.3440000   24.2540000  
C 18.8830000   14.9430000   25.1500000  
N 17.9650000   15.7360000   24.4230000  
O 19.8900000   14.1440000   27.0030000  
C 19.0100000   14.9690000   26.5830000  
O 18.2320000   15.5910000   27.2740000  
O 17.7690000   16.5780000   19.6400000  
O 19.8260000   14.7210000   19.3020000  
H 20.5780000   13.6830000   24.4860000  
H 20.2480000   13.8390000   26.1770000  
H 17.2390000   16.2960000   24.8310000  
H 17.1190000   17.2210000   19.8290000  
H 19.4180000   15.2560000   18.6130000  
C 16.5010000   17.2200000   22.0570000  
C 16.4960000   18.5570000   21.5040000  
C 15.3670000   19.3000000   21.6410000  
C 14.2180000   19.0230000   22.3580000  
C 14.2160000   17.7220000   22.9630000  
C 15.3020000   16.7980000   22.7010000  
C 17.3840000   19.3190000   20.6010000  
C 16.7880000   20.5710000   20.3770000  
N 15.6340000   20.5780000   21.2070000  
O 18.4550000   21.5930000   18.9510000  
C 17.3250000   21.7750000   19.6510000  
O 16.7940000   22.8220000   19.5710000  
O 13.2540000   17.3870000   23.9090000  
O 15.0990000   15.5860000   23.1940000  
H 18.3740000   19.0640000   20.1480000  
H 18.5830000   20.6960000   19.2350000  
H 14.9660000   21.3240000   21.3160000  
H 12.5090000   17.8870000   23.6310000  
H 14.2630000   15.5970000   23.6430000  
C 13.1720000   19.9980000   22.5390000  
C 12.0440000   19.9470000   21.6410000  
C 11.0780000   20.9310000   21.5960000  
C 11.2140000   22.1240000   22.2260000  
C 12.3240000   22.2470000   23.1120000  
C 13.2830000   21.2060000   23.2630000  
C 11.6440000   18.9190000   20.7250000  
C 10.5390000   19.4870000   20.0460000  
N 10.2320000   20.7280000   20.5910000  
O 10.3930000   17.7760000   18.5000000  
C  9.9520000   18.9900000   18.8520000  
O  9.1060000   19.5730000   18.2520000  
O 12.5090000   23.4730000   23.6940000  
O 14.3590000   21.4540000   24.0820000  
H 12.2090000   18.0780000   20.3590000  
H 11.1190000   17.5440000   19.0580000  
H  9.4570000   21.2840000   20.2710000  
H 13.2300000   23.4720000   24.3620000  
H 15.1850000   20.9640000   23.8800000  
H 10.5700000   23.0160000   22.0240000  
