76
111 
C 20.3820000   13.1430000   27.3520000  
C 21.7410000   13.8480000   27.4700000  
C 22.0410000   14.8770000   26.5760000  
C 21.1710000   15.2780000   25.5740000  
C 19.9230000   14.7500000   25.3650000  
C 19.3610000   13.7360000   26.2790000  
C 23.2230000   15.7080000   26.4530000  
C 23.0590000   16.6480000   25.4200000  
N 21.7720000   16.3540000   24.9570000  
O 25.1530000   17.7290000   25.5660000  
C 24.0570000   17.5570000   24.8730000  
O 23.7790000   18.1680000   23.8870000  
O 18.1600000   13.4650000   26.2470000  
O 20.0720000   12.0930000   28.0200000  
H 22.4820000   13.4420000   28.1310000  
H 24.2000000   15.5800000   27.0260000  
H 25.1550000   17.0870000   26.2980000  
H 21.4130000   16.7920000   24.1330000  
C 19.2170000   15.4650000   24.3370000  
C 19.2210000   15.0170000   23.0110000  
C 18.4860000   15.7250000   22.1130000  
C 17.7170000   16.8060000   22.3890000  
C 17.7750000   17.2950000   23.7200000  
C 18.5030000   16.5870000   24.7020000  
C 19.5820000   13.7450000   22.5150000  
C 19.0960000   13.7280000   21.2030000  
N 18.5660000   15.0180000   20.8990000  
O 19.8590000   11.6030000   20.6050000  
C 19.1750000   12.6410000   20.2160000  
O 18.6590000   12.7320000   19.1630000  
O 17.2510000   18.5600000   23.9440000  
O 18.6140000   17.0310000   25.9800000  
H 20.0440000   12.9230000   23.0220000  
H 20.2170000   11.7820000   21.4810000  
H 18.3210000   15.2530000   19.9550000  
H 17.0710000   19.0460000   23.1130000  
H 18.1240000   17.8980000   25.9570000  
C 16.8170000   17.4200000   21.2960000  
C 15.7170000   16.6270000   20.7920000  
C 14.9040000   17.0910000   19.8230000  
C 15.0580000   18.3410000   19.1630000  
C 16.1080000   19.1250000   19.6320000  
C 16.9030000   18.7270000   20.7090000  
C 15.1990000   15.3450000   21.0880000  
C 14.0230000   15.1650000   20.3490000  
N 13.9270000   16.2760000   19.5340000  
O 13.5600000   13.0330000   21.4630000  
C 13.1450000   13.9680000   20.5260000  
O 12.1500000   13.7610000   19.8500000  
O 16.3020000   20.3860000   19.0490000  
O 17.8380000   19.5720000   21.1600000  
H 15.6030000   14.6870000   21.8460000  
H 14.4680000   13.2700000   21.6220000  
H 13.1060000   16.4770000   19.0180000  
H 15.6480000   20.4980000   18.3580000  
H 17.7200000   20.2500000   20.4270000  
C 14.1120000   18.8630000   18.1570000  
C 12.8070000   19.3630000   18.5370000  
C 11.8390000   19.7690000   17.6420000  
C 12.1650000   19.9700000   16.3080000  
C 13.4810000   19.6680000   15.8820000  
C 14.3670000   18.9770000   16.7400000  
C 12.1340000   19.3450000   19.8430000  
C 10.8740000   19.9890000   19.6330000  
N 10.7120000   20.1610000   18.2740000  
O 10.1600000   19.9820000   21.8910000  
C  9.8090000   20.2080000   20.6220000  
O  8.6490000   20.4610000   20.2900000  
O 13.7500000   19.7920000   14.5800000  
O 15.6310000   18.5560000   16.3090000  
H 12.5300000   18.9040000   20.7010000  
H 11.0760000   19.9040000   21.8190000  
H  9.8330000   20.3110000   17.8890000  
H 14.3890000   19.1020000   14.2870000  
H 16.0490000   18.4140000   17.1850000  
H 11.4720000   20.3900000   15.5740000  
