76
111 
C 18.3390000   18.0690000   29.1570000  
C 19.7350000   17.7330000   29.4390000  
C 20.5180000   17.3030000   28.3600000  
C 20.1150000   17.2550000   27.0210000  
C 18.7860000   17.4770000   26.5850000  
C 17.7710000   17.7990000   27.6560000  
C 21.8800000   16.8280000   28.3460000  
C 22.2570000   16.4380000   27.0590000  
N 21.0630000   16.6750000   26.2640000  
O 24.4850000   15.6930000   27.5330000  
C 23.5300000   15.8330000   26.5960000  
O 23.7630000   15.5450000   25.4400000  
O 16.5970000   17.7680000   27.2950000  
O 17.5980000   18.3500000   30.0800000  
H 20.1610000   17.9310000   30.4620000  
H 22.5890000   16.7460000   29.2220000  
H 24.0280000   15.8410000   28.4240000  
H 20.9320000   16.4480000   25.2880000  
C 18.4370000   17.3710000   25.1430000  
C 18.2020000   16.2100000   24.4220000  
C 17.6840000   16.2010000   23.1500000  
C 17.4460000   17.3410000   22.3250000  
C 17.8510000   18.4770000   23.0290000  
C 18.2200000   18.6050000   24.4070000  
C 18.1960000   14.8300000   24.8820000  
C 17.6700000   14.0360000   23.9300000  
N 17.4240000   14.8830000   22.7720000  
O 17.8160000   12.0720000   25.2060000  
C 17.3860000   12.6230000   24.0750000  
O 16.9140000   11.9700000   23.1490000  
O 17.7400000   19.7080000   22.3520000  
O 18.4260000   19.8320000   25.0710000  
H 18.3910000   14.4580000   25.9550000  
H 18.1930000   12.8520000   25.6420000  
H 17.3200000   14.5390000   21.8250000  
H 17.2110000   19.4420000   21.5190000  
H 17.8280000   20.4730000   24.6120000  
C 16.9640000   17.2860000   20.8800000  
C 15.7860000   16.6630000   20.5540000  
C 15.3540000   16.4910000   19.2670000  
C 16.0680000   16.8210000   18.1170000  
C 17.3710000   17.4170000   18.4000000  
C 17.7480000   17.6270000   19.7560000  
C 14.6980000   16.0970000   21.4060000  
C 13.7070000   15.6120000   20.5350000  
N 14.0970000   15.9640000   19.2090000  
O 12.2840000   14.8450000   22.3170000  
C 12.4200000   14.9590000   20.9570000  
O 11.5880000   14.6240000   20.1710000  
O 18.2820000   17.9130000   17.4410000  
O 18.9970000   18.1460000   20.0210000  
H 14.6320000   16.0280000   22.4870000  
H 13.1480000   15.0690000   22.6500000  
H 13.4730000   15.7450000   18.3570000  
H 17.8340000   18.0780000   16.5970000  
H 19.6520000   18.0660000   19.2680000  
C 15.5330000   16.6580000   16.6990000  
C 14.4220000   17.3600000   16.2160000  
C 13.8740000   17.1660000   14.9440000  
C 14.4830000   16.3700000   13.9900000  
C 15.6110000   15.6000000   14.4010000  
C 16.1160000   15.7160000   15.7830000  
C 13.6120000   18.3650000   16.8350000  
C 12.5680000   18.6980000   15.9810000  
N 12.8200000   18.0220000   14.7080000  
O 11.4640000   20.1310000   17.4560000  
C 11.5010000   19.6550000   16.2140000  
O 10.6490000   19.7570000   15.3740000  
O 16.2470000   14.7930000   13.4900000  
O 17.1760000   14.9090000   16.1900000  
H 13.7170000   18.7620000   17.8160000  
H 12.0260000   19.7400000   18.1300000  
H 12.3310000   18.1490000   13.8140000  
H 17.0320000   14.3360000   13.9290000  
H 17.2370000   14.9850000   17.1200000  
H 14.1680000   16.2830000   12.9080000  
