76
111 
C 18.5450000   11.8780000   16.0390000  
C 17.8680000   12.4740000   14.8840000  
C 17.2060000   13.6810000   15.0040000  
C 17.0420000   14.3740000   16.1610000  
C 17.4760000   13.9080000   17.3710000  
C 18.3970000   12.7350000   17.3700000  
C 16.3140000   14.2470000   14.0460000  
C 15.4660000   15.1770000   14.6970000  
N 16.0490000   15.2220000   15.9820000  
O 14.2220000   15.6870000   12.7540000  
C 14.4180000   15.9810000   14.0490000  
O 13.7850000   16.7760000   14.6550000  
O 18.9820000   12.4690000   18.3920000  
O 19.1910000   10.8290000   16.0790000  
H 17.8740000   11.8370000   13.9950000  
H 16.2730000   13.8860000   13.0820000  
H 14.8260000   14.9700000   12.4400000  
H 15.6500000   15.7850000   16.7620000  
C 17.3040000   14.8700000   18.5020000  
C 16.7130000   14.4450000   19.7060000  
C 16.4080000   15.3680000   20.6280000  
C 16.9020000   16.6760000   20.6820000  
C 17.6420000   17.1270000   19.5120000  
C 17.7590000   16.2310000   18.4310000  
C 16.0780000   13.1470000   20.0620000  
C 15.4760000   13.4130000   21.3480000  
N 15.7510000   14.7530000   21.7180000  
O 14.4230000   11.3350000   21.5630000  
C 14.7030000   12.4860000   22.2020000  
O 14.1530000   12.7430000   23.2700000  
O 18.0630000   18.4650000   19.4590000  
O 18.5870000   16.5770000   17.3870000  
H 15.8430000   12.2530000   19.4860000  
H 14.8700000   11.4210000   20.7090000  
H 15.6500000   15.0970000   22.6150000  
H 17.5920000   19.0120000   20.1110000  
H 18.8560000   17.5100000   17.6110000  
C 16.6030000   17.4270000   21.9180000  
C 17.3540000   17.1950000   23.1000000  
C 17.2550000   17.9560000   24.2260000  
C 16.4100000   19.0380000   24.2880000  
C 15.5950000   19.2880000   23.1450000  
C 15.7440000   18.5660000   21.9180000  
C 18.2360000   16.0420000   23.4900000  
C 18.6280000   16.2840000   24.8180000  
N 17.9560000   17.4710000   25.3020000  
O 20.1080000   14.4630000   25.0160000  
C 19.6120000   15.4680000   25.6170000  
O 19.8720000   15.6220000   26.7780000  
O 14.6450000   20.2600000   23.2430000  
O 15.0130000   18.9010000   20.8600000  
H 18.5650000   15.2290000   22.8800000  
H 19.8520000   14.4380000   24.0910000  
H 17.9890000   17.7330000   26.2610000  
H 14.5720000   20.4230000   24.2340000  
H 14.5030000   19.6320000   21.1070000  
C 16.0790000   19.6750000   25.5950000  
C 17.1350000   20.2980000   26.3700000  
C 16.8160000   20.7350000   27.6300000  
C 15.5810000   20.8340000   28.1670000  
C 14.5670000   20.1940000   27.4520000  
C 14.8120000   19.5830000   26.2130000  
C 18.5190000   20.4710000   26.1800000  
C 18.9750000   21.0700000   27.3540000  
N 17.9090000   21.2880000   28.2140000  
O 21.2470000   21.3510000   26.7920000  
C 20.3260000   21.4910000   27.7420000  
O 20.6010000   21.9970000   28.8210000  
O 13.2940000   20.2540000   27.9520000  
O 13.8420000   18.8850000   25.5860000  
H 19.1470000   20.2190000   25.3470000  
H 20.7690000   21.2860000   26.0160000  
H 18.0690000   21.5690000   29.2030000  
H 12.6050000   19.9350000   27.3050000  
H 14.2550000   18.6020000   24.7760000  
H 15.3000000   21.3340000   29.1670000  
