76
111 
C 16.0750000   21.2530000   27.3640000  
C 15.8990000   20.4570000   28.6380000  
C 16.3790000   19.1480000   28.6650000  
C 16.9550000   18.5830000   27.5750000  
C 17.0220000   19.1480000   26.3240000  
C 16.7670000   20.5950000   26.1250000  
C 16.3480000   18.1530000   29.6870000  
C 16.9060000   16.9720000   29.2270000  
N 17.1310000   17.2490000   27.8770000  
O 16.5590000   15.7220000   31.2040000  
C 17.0210000   15.6930000   29.9830000  
O 17.3800000   14.6700000   29.4590000  
O 17.0520000   21.2790000   25.1130000  
O 15.6530000   22.3910000   27.1960000  
H 15.3220000   20.9460000   29.4910000  
H 15.9110000   18.3470000   30.6910000  
H 16.5160000   16.6200000   31.4680000  
H 17.5590000   16.6190000   27.2820000  
C 17.2170000   18.2850000   25.1620000  
C 16.1390000   17.9470000   24.3240000  
C 16.2610000   17.3310000   23.1310000  
C 17.5030000   16.7910000   22.7370000  
C 18.6320000   17.1020000   23.5610000  
C 18.4670000   17.7740000   24.7540000  
C 14.8380000   18.5880000   24.3130000  
C 14.1440000   18.0950000   23.1910000  
N 15.0280000   17.2840000   22.5020000  
O 12.0120000   19.0130000   23.6010000  
C 12.7750000   18.2800000   22.7900000  
O 12.2620000   17.9730000   21.7080000  
O 19.9230000   16.8320000   23.1840000  
O 19.5680000   17.9630000   25.5860000  
H 14.4650000   19.1850000   25.1350000  
H 12.5860000   19.3730000   24.3100000  
H 14.7900000   16.6030000   21.7930000  
H 19.9560000   16.0130000   22.6760000  
H 20.3270000   17.7170000   25.0350000  
C 17.5480000   15.9490000   21.4230000  
C 17.0900000   16.5520000   20.2420000  
C 16.9110000   15.8120000   19.1190000  
C 17.3830000   14.4800000   18.9230000  
C 17.8090000   13.8190000   20.1440000  
C 18.0100000   14.5760000   21.3370000  
C 16.6350000   17.8810000   19.9120000  
C 16.2210000   17.8830000   18.5600000  
N 16.3680000   16.5710000   18.1300000  
O 15.6570000   20.1330000   18.5090000  
C 15.6980000   19.0070000   17.8390000  
O 15.3900000   18.9650000   16.6840000  
O 18.3930000   12.5960000   19.9750000  
O 18.5510000   13.8690000   22.3540000  
H 16.4600000   18.7270000   20.5920000  
H 15.7370000   19.8860000   19.4740000  
H 16.0620000   16.2350000   17.2260000  
H 18.3280000   12.2930000   19.0200000  
H 18.8380000   13.0130000   21.9200000  
C 17.3250000   13.7470000   17.5440000  
C 17.8740000   14.3550000   16.4400000  
C 17.9040000   13.6880000   15.2330000  
C 17.2810000   12.4630000   15.0280000  
C 16.5970000   11.9110000   16.1240000  
C 16.6240000   12.5050000   17.4200000  
C 18.6430000   15.5640000   16.2750000  
C 18.9750000   15.6570000   14.9470000  
N 18.3900000   14.5580000   14.2830000  
O 20.3710000   17.5960000   15.0700000  
C 19.7180000   16.7000000   14.2500000  
O 19.7710000   16.7070000   13.0390000  
O 16.0410000   10.6970000   15.8030000  
O 16.0070000   11.8530000   18.5020000  
H 18.9230000   16.2970000   17.1040000  
H 20.1160000   17.2710000   15.9320000  
H 18.2540000   14.4130000   13.2840000  
H 15.6410000   10.2220000   16.5270000  
H 15.7870000   12.5290000   19.2080000  
H 17.3460000   11.8470000   14.0690000  
