76
111 
C 19.6510000   17.2120000   28.9230000  
C 21.0710000   16.8940000   28.7030000  
C 21.4830000   16.4180000   27.5290000  
C 20.5660000   16.2400000   26.4570000  
C 19.3120000   16.7560000   26.3880000  
C 18.6940000   17.1470000   27.6370000  
C 22.7910000   16.0740000   27.0630000  
C 22.7060000   15.7030000   25.6890000  
N 21.3450000   15.7350000   25.4150000  
O 25.0100000   15.4100000   25.2990000  
C 23.7950000   15.2120000   24.7900000  
O 23.5870000   14.7900000   23.6490000  
O 17.4700000   17.4310000   27.7320000  
O 19.2230000   17.6100000   29.9570000  
H 21.7450000   16.9470000   29.5760000  
H 23.6920000   16.1780000   27.7360000  
H 24.8670000   15.6860000   26.2190000  
H 21.0210000   15.4990000   24.4990000  
C 18.6040000   16.8440000   25.1550000  
C 18.2600000   15.6920000   24.3850000  
C 17.5220000   15.7810000   23.2100000  
C 17.3950000   16.9810000   22.4650000  
C 17.7670000   18.1810000   23.1500000  
C 18.2630000   18.1010000   24.4840000  
C 18.3240000   14.2960000   24.7460000  
C 17.8120000   13.6170000   23.6080000  
N 17.4080000   14.5180000   22.6400000  
O 18.2390000   11.4210000   24.5090000  
C 17.6840000   12.1240000   23.4320000  
O 17.2690000   11.4400000   22.5070000  
O 17.5300000   19.4360000   22.5880000  
O 18.6200000   19.2430000   25.0930000  
H 18.6750000   13.9060000   25.7010000  
H 18.7190000   12.0960000   25.0120000  
H 16.9890000   14.3850000   21.7900000  
H 17.4640000   19.2800000   21.6120000  
H 18.4590000   19.9060000   24.4720000  
C 16.8860000   16.9920000   21.0740000  
C 15.5700000   16.5940000   20.8180000  
C 15.0150000   16.5600000   19.6100000  
C 15.6770000   16.9450000   18.4020000  
C 17.0290000   17.4540000   18.6380000  
C 17.6110000   17.3730000   19.8910000  
C 14.5330000   16.3340000   21.7850000  
C 13.3280000   16.2530000   21.1190000  
N 13.6280000   16.4520000   19.6800000  
O 11.9660000   15.5440000   22.9840000  
C 12.0190000   15.9720000   21.6360000  
O 11.0120000   15.9880000   21.0170000  
O 17.7640000   17.7990000   17.5030000  
O 18.9160000   17.7490000   19.9390000  
H 14.5740000   16.1060000   22.8370000  
H 12.8380000   15.4250000   23.3350000  
H 12.9850000   16.4300000   18.8950000  
H 17.1090000   17.9810000   16.8460000  
H 19.2570000   17.7820000   19.0100000  
C 14.9200000   17.0910000   17.0780000  
C 13.8880000   18.0270000   16.8600000  
C 13.3180000   18.1310000   15.6180000  
C 13.6850000   17.3720000   14.4930000  
C 14.6060000   16.3550000   14.6790000  
C 15.2030000   16.2490000   16.0010000  
C 13.3890000   19.1460000   17.7120000  
C 12.4240000   19.7800000   16.9000000  
N 12.3820000   19.1360000   15.6260000  
O 11.8150000   21.4290000   18.5050000  
C 11.5680000   20.8850000   17.2950000  
O 10.7490000   21.3020000   16.5420000  
O 14.8200000   15.4520000   13.7190000  
O 16.2210000   15.3310000   16.0980000  
H 13.8040000   19.3310000   18.7200000  
H 12.5940000   20.9550000   18.9490000  
H 11.8710000   19.5730000   14.8240000  
H 15.4950000   14.7150000   13.9760000  
H 16.5280000   15.4890000   17.0490000  
H 13.1710000   17.5060000   13.5490000  
