76
111 
C 10.5620000   15.3070000   17.6220000  
C 11.1740000   15.3080000   16.2920000  
C 12.5740000   15.3940000   16.1920000  
C 13.4510000   15.5160000   17.2500000  
C 12.9890000   15.5950000   18.5590000  
C 11.5660000   15.4260000   18.8440000  
C 13.3760000   15.5600000   15.0430000  
C 14.7470000   15.6690000   15.3760000  
N 14.7110000   15.6350000   16.7670000  
O 15.7600000   15.6400000   13.2900000  
C 15.9820000   15.7300000   14.6230000  
O 17.0630000   15.8850000   15.1300000  
O 11.1020000   15.2770000   20.0230000  
O  9.3140000   15.2690000   17.7870000  
H 10.5220000   15.3910000   15.4410000  
H 13.0500000   15.5210000   14.0000000  
H 14.7640000   15.8330000   13.1800000  
H 15.4310000   15.7770000   17.4110000  
C 14.0680000   15.8190000   19.5300000  
C 14.4050000   17.1510000   19.9030000  
C 15.5380000   17.3350000   20.6570000  
C 16.3520000   16.3440000   21.1410000  
C 15.9550000   15.0060000   20.8590000  
C 14.8120000   14.7310000   20.0490000  
C 13.9160000   18.4640000   19.5530000  
C 14.8340000   19.3750000   20.1020000  
N 15.8370000   18.6800000   20.7840000  
O 13.6120000   21.2660000   19.4350000  
C 14.8220000   20.7930000   19.7670000  
O 15.7730000   21.5640000   19.8500000  
O 16.6000000   13.9480000   21.4120000  
O 14.3680000   13.4740000   19.7100000  
H 13.0480000   18.5820000   18.8420000  
H 13.1120000   20.4560000   19.4560000  
H 16.7230000   19.0590000   21.1950000  
H 17.5220000   14.2280000   21.7100000  
H 14.9040000   12.8490000   20.2210000  
C 17.5720000   16.7790000   21.9600000  
C 17.2510000   17.2860000   23.2350000  
C 18.2690000   17.5080000   24.1060000  
C 19.6280000   17.3370000   23.8180000  
C 19.9040000   16.7470000   22.5350000  
C 18.8880000   16.6310000   21.5670000  
C 15.9900000   17.5970000   23.9470000  
C 16.3850000   18.1100000   25.1800000  
N 17.7920000   18.1080000   25.2960000  
O 14.2440000   18.5650000   25.8230000  
C 15.5000000   18.6470000   26.2220000  
O 15.9200000   19.0490000   27.3570000  
O 21.1720000   16.2630000   22.3510000  
O 19.1030000   16.2250000   20.2680000  
H 15.0110000   17.4390000   23.5330000  
H 14.3310000   18.1420000   24.9330000  
H 18.3170000   18.3260000   26.1740000  
H 21.7740000   16.4830000   23.0810000  
H 20.0380000   16.1480000   20.1020000  
C 20.6440000   17.5160000   24.8840000  
C 21.1820000   16.4720000   25.6400000  
C 22.1580000   16.6550000   26.5540000  
C 22.5860000   17.9290000   26.8970000  
C 22.0300000   19.0370000   26.2210000  
C 21.0840000   18.8210000   25.1980000  
C 20.7540000   15.1200000   25.8280000  
C 21.5900000   14.4610000   26.7330000  
N 22.4540000   15.4770000   27.2120000  
O 20.9390000   12.3310000   26.2270000  
C 21.6930000   13.0440000   27.0100000  
O 22.4080000   12.5160000   27.8470000  
O 22.4340000   20.2770000   26.5660000  
O 20.8160000   19.9150000   24.4340000  
H 19.9990000   14.6320000   25.2540000  
H 20.4280000   12.9720000   25.8120000  
H 23.2020000   15.2830000   27.8900000  
H 22.3460000   20.8200000   25.7910000  
H 20.5160000   19.6180000   23.5440000  
H 23.3030000   18.1170000   27.6210000  
