76
111 
C 11.9660000   13.6250000   16.9560000  
C 12.6950000   13.3100000   15.7820000  
C 14.0460000   13.7730000   15.6470000  
C 14.7930000   14.1590000   16.7260000  
C 14.2600000   14.6480000   17.8980000  
C 12.7840000   14.3740000   18.1090000  
C 14.9590000   13.7070000   14.5380000  
C 16.1790000   14.2170000   14.9390000  
N 16.0210000   14.5440000   16.2500000  
O 17.3300000   13.9700000   12.9110000  
C 17.4490000   14.3300000   14.1830000  
O 18.5300000   14.7460000   14.6410000  
O 12.1020000   14.6000000   19.1730000  
O 10.8130000   13.2840000   17.1130000  
H 12.1540000   12.7580000   15.0610000  
H 14.7280000   13.3770000   13.5940000  
H 16.3860000   13.8580000   12.8480000  
H 16.8140000   14.7560000   16.8720000  
C 15.1460000   15.1980000   18.9430000  
C 15.2210000   16.6050000   19.1450000  
C 16.0640000   17.0260000   20.1160000  
C 16.7530000   16.2210000   20.9840000  
C 16.6970000   14.8340000   20.7890000  
C 15.8780000   14.3120000   19.7570000  
C 14.6430000   17.7940000   18.5500000  
C 15.2770000   18.9050000   19.1140000  
N 16.0410000   18.4160000   20.2080000  
O 14.6660000   20.5940000   17.4330000  
C 15.0980000   20.3090000   18.6880000  
O 15.4430000   21.1890000   19.3970000  
O 17.3360000   13.9320000   21.6310000  
O 15.8050000   13.0010000   19.5760000  
H 13.8950000   17.8010000   17.8080000  
H 14.3540000   19.7460000   17.0290000  
H 16.8420000   18.9350000   20.7050000  
H 18.0140000   14.4140000   22.2320000  
H 16.3600000   12.5270000   20.2400000  
C 17.5900000   16.7460000   22.1450000  
C 17.0200000   17.6100000   23.1030000  
C 17.7330000   18.0840000   24.1540000  
C 19.0450000   17.7790000   24.4410000  
C 19.7430000   16.8990000   23.5400000  
C 18.9690000   16.4370000   22.3840000  
C 15.5980000   18.0740000   23.2460000  
C 15.6660000   18.9510000   24.3410000  
N 16.9410000   18.9050000   24.9280000  
O 13.3970000   19.6500000   23.9110000  
C 14.4640000   19.7750000   24.7170000  
O 14.4770000   20.5170000   25.6900000  
O 21.0040000   16.5810000   23.8150000  
O 19.7010000   15.7100000   21.4500000  
H 14.7940000   17.9840000   22.5440000  
H 13.7130000   19.0450000   23.2140000  
H 17.2650000   19.3910000   25.8070000  
H 21.1790000   16.7410000   24.7910000  
H 20.5780000   16.1380000   21.2770000  
C 19.6470000   18.3730000   25.6490000  
C 19.7690000   17.6340000   26.8260000  
C 20.3640000   18.0900000   28.0100000  
C 21.0020000   19.3450000   28.0010000  
C 21.0340000   20.0380000   26.7620000  
C 20.2630000   19.6410000   25.6530000  
C 19.4120000   16.2410000   27.1240000  
C 19.6890000   16.0110000   28.4710000  
N 20.3570000   17.1450000   29.0010000  
O 18.6140000   13.8340000   28.7080000  
C 19.3820000   14.8140000   29.3260000  
O 19.5990000   14.8060000   30.5250000  
O 21.5370000   21.2940000   26.6670000  
O 20.0710000   20.5220000   24.5530000  
H 19.0200000   15.5510000   26.4870000  
H 18.3460000   14.1350000   27.8180000  
H 20.5570000   17.2630000   29.9330000  
H 20.9360000   21.7480000   26.0150000  
H 19.4220000   20.0370000   24.0130000  
H 21.5560000   19.6700000   28.9230000  
