76
111 
C 15.5010000   22.0460000   27.2300000  
C 15.1640000   21.0930000   28.3440000  
C 15.4320000   19.7690000   28.1460000  
C 15.8740000   19.2290000   26.9180000  
C 16.0430000   20.0110000   25.7700000  
C 15.9060000   21.4780000   25.8390000  
C 15.4030000   18.6430000   29.0110000  
C 15.7140000   17.4840000   28.2560000  
N 16.0820000   17.9160000   26.9470000  
O 15.4830000   15.9140000   30.0050000  
C 15.8050000   16.1300000   28.6710000  
O 16.0840000   15.1530000   27.9800000  
O 16.2000000   22.2550000   24.9580000  
O 15.6060000   23.2520000   27.3790000  
H 14.9290000   21.5020000   29.3880000  
H 15.1450000   18.8100000   30.0280000  
H 15.2360000   16.7680000   30.2990000  
H 16.2280000   17.3860000   26.1950000  
C 16.3370000   19.2090000   24.5610000  
C 15.3870000   18.2780000   24.0610000  
C 15.7450000   17.5050000   22.9750000  
C 16.9800000   17.4810000   22.4140000  
C 17.9470000   18.4400000   22.9910000  
C 17.6420000   19.3120000   24.0220000  
C 14.0320000   17.8270000   24.3470000  
C 13.6730000   16.8330000   23.4430000  
N 14.7300000   16.6860000   22.5070000  
O 11.4280000   16.5000000   24.1540000  
C 12.4010000   16.1160000   23.2910000  
O 12.1680000   15.3240000   22.4220000  
O 19.1990000   18.5870000   22.4670000  
O 18.4820000   20.2940000   24.3980000  
H 13.3410000   18.2220000   25.0840000  
H 11.9080000   17.0860000   24.7860000  
H 14.8030000   15.9310000   21.7770000  
H 19.4560000   17.9070000   21.8020000  
H 19.3560000   20.0340000   24.0160000  
C 17.3040000   16.4510000   21.3850000  
C 16.9250000   16.6410000   20.0370000  
C 17.2910000   15.7900000   19.0240000  
C 17.9080000   14.5150000   19.2650000  
C 18.2190000   14.3050000   20.6610000  
C 17.9910000   15.2810000   21.6640000  
C 16.2610000   17.7630000   19.4570000  
C 16.1490000   17.4170000   18.0840000  
N 16.8400000   16.2290000   17.7950000  
O 14.7440000   19.2600000   17.5340000  
C 15.3560000   18.1690000   17.0610000  
O 15.4080000   17.9590000   15.8740000  
O 18.8520000   13.1160000   21.0160000  
O 18.4980000   15.0470000   22.8930000  
H 15.7260000   18.5690000   19.9310000  
H 15.0460000   19.2460000   18.4590000  
H 16.8670000   15.6700000   16.9300000  
H 19.0680000   12.6450000   20.1840000  
H 18.8780000   14.1500000   22.7270000  
C 18.2240000   13.5990000   18.1250000  
C 19.1130000   13.9770000   17.1610000  
C 19.3110000   13.2220000   16.0620000  
C 18.5930000   12.0200000   15.7880000  
C 17.7290000   11.5570000   16.8090000  
C 17.5140000   12.4190000   17.9350000  
C 20.0900000   15.0450000   17.1400000  
C 20.8550000   14.8750000   15.9920000  
N 20.3300000   13.7700000   15.2960000  
O 22.4320000   16.5150000   16.6040000  
C 22.0620000   15.6050000   15.6570000  
O 22.7680000   15.4170000   14.6650000  
O 17.0380000   10.3810000   16.5610000  
O 16.4580000   12.1200000   18.7860000  
H 20.2200000   15.7990000   17.9420000  
H 21.8200000   16.4590000   17.2790000  
H 20.6520000   13.3810000   14.4430000  
H 16.4000000   10.3170000   17.2710000  
H 16.4460000   12.7910000   19.4830000  
H 18.9540000   11.3900000   14.9190000  
