76
111 
C 12.5250000   19.8060000   27.1310000  
C 13.3380000   20.9740000   27.6250000  
C 14.5580000   21.2320000   27.0270000  
C 15.0640000   20.4130000   26.0350000  
C 14.4450000   19.3270000   25.4470000  
C 13.0580000   19.0590000   25.8820000  
C 15.5610000   22.2090000   27.3330000  
C 16.6960000   21.9550000   26.5860000  
N 16.3010000   20.8230000   25.7910000  
O 18.0080000   23.7070000   27.4670000  
C 17.9840000   22.6780000   26.5580000  
O 18.9120000   22.4330000   25.8620000  
O 12.4040000   18.2670000   25.2260000  
O 11.5840000   19.4000000   27.7910000  
H 13.0090000   21.4830000   28.5760000  
H 15.3580000   23.0040000   28.0570000  
H 17.1830000   23.6020000   28.0140000  
H 16.9310000   20.3680000   25.0890000  
C 15.2030000   18.6510000   24.3820000  
C 15.7310000   17.3940000   24.5040000  
C 16.4900000   16.8000000   23.4950000  
C 16.7540000   17.3730000   22.2770000  
C 16.1770000   18.6730000   22.0950000  
C 15.3900000   19.2520000   23.1260000  
C 15.6840000   16.3660000   25.5940000  
C 16.5690000   15.3720000   25.1950000  
N 16.9660000   15.5720000   23.8950000  
O 16.3790000   14.1250000   27.3100000  
C 16.9910000   14.2340000   26.0510000  
O 17.9320000   13.4930000   25.8870000  
O 16.2720000   19.2640000   20.9020000  
O 14.7520000   20.4240000   22.8550000  
H 15.2650000   16.5220000   26.5520000  
H 15.7270000   14.8090000   27.2690000  
H 17.5620000   14.9500000   23.3270000  
H 16.9010000   18.6640000   20.4220000  
H 14.8990000   20.6020000   21.8590000  
C 17.4610000   16.5930000   21.2350000  
C 16.9430000   15.4210000   20.7320000  
C 17.6710000   14.6950000   19.7890000  
C 18.7910000   15.0940000   19.1500000  
C 19.3680000   16.2720000   19.6620000  
C 18.7360000   16.9660000   20.7180000  
C 15.6590000   14.7420000   20.8670000  
C 15.6960000   13.6070000   20.1300000  
N 16.8880000   13.6010000   19.3820000  
O 13.4590000   12.7320000   20.7790000  
C 14.6760000   12.4930000   20.1410000  
O 14.7970000   11.3950000   19.6100000  
O 20.5530000   16.8090000   19.2060000  
O 19.2760000   18.1430000   21.2380000  
H 14.8030000   14.9950000   21.5470000  
H 13.5720000   13.5910000   21.2000000  
H 17.1090000   12.9830000   18.5840000  
H 20.9040000   16.2690000   18.4430000  
H 19.9140000   18.5190000   20.5530000  
C 19.5220000   14.3090000   18.0750000  
C 19.1350000   14.5350000   16.7400000  
C 19.7670000   13.9310000   15.6220000  
C 20.8160000   13.0620000   15.8780000  
C 21.2000000   12.8370000   17.2060000  
C 20.5520000   13.4440000   18.2860000  
C 18.0440000   15.3220000   16.2280000  
C 17.9580000   15.0400000   14.8500000  
N 18.9760000   14.1210000   14.4840000  
O 15.9620000   16.3210000   14.5640000  
C 16.8570000   15.4920000   13.9480000  
O 16.7970000   15.2200000   12.7670000  
O 22.1420000   11.9430000   17.5090000  
O 20.8850000   13.0970000   19.6020000  
H 17.3270000   15.9080000   16.7500000  
H 16.3680000   16.7680000   15.2590000  
H 19.1080000   13.6940000   13.5630000  
H 22.2280000   11.9890000   18.4630000  
H 20.2960000   13.6570000   20.1490000  
H 21.3480000   12.5600000   15.1430000  
