76
111 
C 20.1420000   10.2010000   19.5000000  
C 20.7960000   10.6580000   18.2750000  
C 20.9220000   11.9850000   18.1300000  
C 20.3630000   12.9680000   18.9540000  
C 19.5580000   12.6130000   19.9920000  
C 19.3390000   11.2060000   20.3730000  
C 21.6100000   12.6840000   17.0620000  
C 21.5010000   14.0650000   17.3440000  
N 20.6920000   14.1800000   18.4650000  
O 22.5340000   14.9320000   15.3280000  
C 21.8200000   15.2460000   16.4120000  
O 21.5010000   16.3770000   16.6630000  
O 18.6770000   10.7960000   21.3300000  
O 20.1310000    8.9700000   19.7150000  
H 21.2270000    9.8730000   17.6590000  
H 22.0900000   12.2480000   16.1920000  
H 22.9790000   14.0640000   15.3850000  
H 20.1740000   15.0630000   18.7400000  
C 18.8500000   13.7400000   20.6740000  
C 17.5860000   14.0560000   20.1110000  
C 17.0650000   15.2940000   20.4550000  
C 17.5530000   16.2700000   21.3220000  
C 18.8490000   15.8670000   21.8730000  
C 19.5050000   14.7020000   21.4120000  
C 16.6940000   13.4460000   19.1060000  
C 15.6050000   14.3190000   19.0470000  
N 15.8440000   15.4110000   19.8600000  
O 14.5270000   13.1660000   17.3640000  
C 14.4190000   14.2050000   18.1730000  
O 13.5400000   14.9990000   18.0210000  
O 19.5570000   16.7670000   22.7140000  
O 20.7800000   14.4320000   21.8100000  
H 16.9390000   12.6010000   18.4630000  
H 15.3150000   12.6770000   17.6020000  
H 15.2320000   16.2200000   19.9140000  
H 19.1570000   17.5900000   22.4580000  
H 20.9500000   14.7770000   22.6880000  
C 16.8230000   17.5020000   21.6980000  
C 15.6560000   17.3460000   22.4450000  
C 15.0350000   18.4860000   22.9290000  
C 15.5500000   19.8090000   22.8520000  
C 16.7330000   19.9390000   22.0810000  
C 17.3770000   18.8200000   21.5230000  
C 14.8580000   16.2010000   22.9170000  
C 13.9170000   16.7470000   23.8400000  
N 13.9710000   18.1400000   23.7310000  
O 13.4960000   14.6270000   24.8020000  
C 13.1970000   15.9720000   24.8620000  
O 12.4410000   16.4220000   25.7180000  
O 17.2400000   21.1950000   21.8240000  
O 18.4980000   18.9430000   20.7300000  
H 15.0750000   15.1910000   22.7210000  
H 13.8740000   14.6240000   23.9750000  
H 13.3680000   18.7380000   24.2380000  
H 16.9050000   21.8830000   22.4070000  
H 18.5980000   19.8600000   20.4900000  
C 14.9230000   20.9740000   23.5100000  
C 14.7030000   20.9610000   24.9230000  
C 14.0370000   21.9670000   25.4910000  
C 13.4000000   23.0200000   24.7530000  
C 13.4870000   22.9530000   23.3560000  
C 14.2160000   21.8580000   22.7210000  
C 15.2220000   20.0930000   26.0070000  
C 14.8210000   20.7130000   27.1700000  
N 14.0080000   21.8020000   26.8700000  
O 16.2190000   19.3920000   28.5690000  
C 15.3350000   20.3950000   28.5230000  
O 15.0060000   20.9940000   29.4760000  
O 12.8610000   23.8850000   22.6000000  
O 14.2950000   21.7670000   21.3370000  
H 15.9610000   19.3240000   25.8650000  
H 16.2510000   18.9990000   27.7030000  
H 13.4840000   22.3650000   27.5150000  
H 13.2890000   23.7760000   21.7380000  
H 14.9450000   21.1480000   21.1310000  
H 12.8620000   23.7810000   25.2870000  
