76
111 
C 18.5210000   19.7960000   28.7490000  
C 19.1250000   18.6430000   29.3710000  
C 19.2300000   17.4870000   28.6750000  
C 18.8220000   17.2650000   27.4150000  
C 18.1910000   18.1890000   26.6210000  
C 17.9960000   19.6060000   27.2150000  
C 19.8510000   16.2470000   29.0670000  
C 19.8390000   15.3760000   28.0240000  
N 18.9990000   15.9900000   27.1010000  
O 20.9880000   13.6470000   29.1370000  
C 20.3060000   13.9800000   28.0010000  
O 20.1470000   13.1890000   27.1190000  
O 17.4340000   20.3980000   26.5580000  
O 18.4440000   20.8140000   29.3580000  
H 19.5170000   18.7310000   30.3750000  
H 20.1400000   16.0820000   30.0730000  
H 21.0480000   14.5000000   29.5470000  
H 18.8280000   15.6240000   26.1890000  
C 17.8800000   17.8510000   25.2080000  
C 16.5740000   17.6790000   24.7350000  
C 16.3900000   17.3350000   23.3740000  
C 17.3850000   17.0580000   22.4300000  
C 18.7040000   17.1900000   22.9700000  
C 18.9820000   17.6550000   24.2790000  
C 15.3140000   17.6000000   25.4280000  
C 14.4340000   17.2140000   24.4580000  
N 15.0420000   17.1360000   23.2200000  
O 12.6250000   16.8130000   25.9660000  
C 13.0370000   16.8910000   24.7130000  
O 12.2370000   16.6520000   23.8260000  
O 19.7490000   16.8360000   22.1420000  
O 20.2880000   17.6030000   24.6470000  
H 15.0980000   17.8920000   26.4410000  
H 13.3720000   17.0600000   26.5060000  
H 14.5250000   17.1840000   22.3000000  
H 19.4050000   16.3580000   21.3560000  
H 20.8440000   17.4420000   23.8460000  
C 17.0890000   16.7060000   20.9840000  
C 16.4720000   17.6830000   20.1890000  
C 16.0200000   17.3250000   18.9990000  
C 16.1290000   16.0500000   18.4460000  
C 16.7150000   15.0250000   19.2260000  
C 17.1910000   15.3640000   20.5370000  
C 16.2140000   19.0950000   20.4150000  
C 15.7480000   19.5260000   19.2030000  
N 15.5300000   18.4100000   18.3730000  
O 15.2980000   21.7980000   19.8990000  
C 15.2610000   20.8890000   18.9030000  
O 14.7440000   21.1160000   17.7850000  
O 16.8470000   13.8060000   18.6540000  
O 17.8420000   14.4620000   21.3300000  
H 16.3820000   19.8280000   21.2180000  
H 15.4490000   21.2840000   20.7460000  
H 15.0460000   18.3970000   17.4750000  
H 16.2730000   13.7860000   17.8830000  
H 17.9740000   13.7130000   20.7660000  
C 15.4690000   15.8060000   17.1400000  
C 16.1710000   15.1700000   16.0690000  
C 15.5640000   14.9120000   14.8360000  
C 14.1900000   15.1940000   14.6570000  
C 13.4630000   15.6280000   15.8110000  
C 14.0140000   15.9190000   17.0610000  
C 17.5630000   14.5830000   15.9290000  
C 17.6600000   14.0910000   14.6090000  
N 16.4190000   14.1410000   13.9930000  
O 20.0770000   13.9660000   14.6060000  
C 18.9210000   13.6370000   13.9910000  
O 18.8970000   13.0180000   12.9770000  
O 12.0770000   15.5930000   15.6250000  
O 13.1700000   16.0850000   18.0930000  
H 18.4080000   14.6050000   16.7100000  
H 19.7990000   14.5340000   15.3320000  
H 16.2600000   13.8910000   13.0580000  
H 11.7330000   15.8840000   16.4650000  
H 13.6770000   16.3240000   18.8740000  
H 13.6570000   15.0340000   13.7660000  
