76
111 
C 10.1210000   17.4670000   18.1940000  
C  9.8680000   18.9750000   18.2640000  
C 10.7500000   19.7670000   18.9350000  
C 11.9900000   19.2590000   19.3840000  
C 12.4100000   17.9180000   19.3810000  
C 11.5010000   16.8820000   18.7910000  
C 10.8290000   21.2060000   19.0270000  
C 12.0650000   21.5360000   19.5550000  
N 12.6940000   20.3080000   19.7820000  
O 11.7480000   23.9370000   19.6240000  
C 12.5970000   22.8390000   19.8630000  
O 13.6890000   23.1020000   20.3810000  
O 11.7000000   15.6820000   18.7810000  
O  9.3510000   16.6640000   17.6700000  
H  8.9170000   19.2110000   17.9460000  
H 10.0320000   21.9270000   18.7020000  
H 11.1120000   23.6410000   18.9990000  
H 13.6360000   20.2490000   20.0650000  
C 13.7720000   17.6380000   19.8920000  
C 14.0180000   17.5390000   21.2730000  
C 15.2350000   17.1970000   21.7460000  
C 16.3340000   16.9160000   20.9220000  
C 16.0590000   16.9290000   19.5500000  
C 14.8460000   17.3360000   19.0320000  
C 13.2260000   17.8680000   22.4200000  
C 14.0490000   17.6320000   23.5280000  
N 15.2420000   17.0740000   23.0990000  
O 12.5050000   18.0670000   25.2970000  
C 13.7540000   17.7230000   24.9620000  
O 14.6420000   17.4530000   25.7570000  
O 17.0650000   16.6010000   18.6680000  
O 14.5780000   17.2920000   17.7270000  
H 12.2940000   18.3420000   22.5180000  
H 11.9340000   18.0080000   24.5470000  
H 15.9910000   16.7260000   23.7230000  
H 17.8130000   16.5950000   19.2370000  
H 15.3900000   16.7060000   17.4330000  
C 17.6480000   16.6490000   21.5360000  
C 17.8210000   15.4420000   22.2770000  
C 19.0240000   15.1930000   22.9140000  
C 20.1350000   16.0820000   22.8920000  
C 19.9910000   17.2260000   21.9800000  
C 18.7560000   17.4970000   21.3420000  
C 17.0170000   14.3880000   22.5530000  
C 17.6750000   13.4730000   23.3810000  
N 18.9560000   14.0480000   23.6690000  
O 15.9530000   11.8120000   23.3550000  
C 17.1670000   12.1780000   23.8460000  
O 17.8170000   11.4330000   24.5200000  
O 21.0020000   18.1290000   21.8450000  
O 18.7310000   18.5570000   20.5130000  
H 16.1060000   14.2430000   21.9390000  
H 15.6800000   12.4910000   22.7320000  
H 19.7080000   13.6630000   24.2560000  
H 21.6820000   17.7210000   22.3140000  
H 19.6380000   18.9960000   20.4690000  
C 21.3580000   15.8410000   23.6970000  
C 22.3210000   14.9650000   23.1970000  
C 23.4630000   14.6300000   23.8650000  
C 23.8240000   15.2380000   25.1030000  
C 22.9150000   16.2540000   25.6440000  
C 21.7020000   16.5040000   24.9380000  
C 22.3950000   14.2080000   21.9650000  
C 23.4210000   13.3240000   22.0430000  
N 24.1160000   13.5790000   23.2380000  
O 23.1110000   12.2040000   19.9380000  
C 23.8490000   12.2550000   21.0630000  
O 24.7730000   11.4930000   21.3140000  
O 23.3070000   17.0810000   26.6970000  
O 20.8140000   17.4570000   25.5000000  
H 21.6500000   14.2480000   21.2070000  
H 22.7620000   13.1360000   19.9920000  
H 24.9450000   13.0910000   23.5930000  
H 22.5850000   17.6820000   26.8710000  
H 20.0290000   17.4480000   24.9030000  
H 24.8040000   14.9910000   25.5970000  
