76
111 
C 11.9770000   21.6800000   24.8010000  
C 12.4530000   21.8610000   26.2370000  
C 13.4320000   21.0580000   26.7330000  
C 14.0560000   20.1780000   25.8230000  
C 13.8010000   19.9050000   24.4860000  
C 12.7050000   20.6250000   23.8370000  
C 14.1410000   20.9240000   27.9910000  
C 15.1990000   19.9790000   27.8200000  
N 15.0460000   19.5070000   26.4850000  
O 15.9020000   20.1970000   30.0800000  
C 16.0890000   19.4910000   28.8670000  
O 16.9760000   18.6500000   28.8210000  
O 12.3970000   20.3440000   22.6900000  
O 11.0240000   22.3380000   24.3980000  
H 11.8700000   22.5440000   26.8150000  
H 13.7990000   21.4940000   28.8270000  
H 15.4090000   20.9700000   29.8190000  
H 15.7620000   18.8880000   26.1550000  
C 14.7480000   18.9870000   23.7540000  
C 14.2500000   17.8510000   23.0670000  
C 14.9980000   17.1230000   22.2460000  
C 16.3510000   17.4110000   22.0580000  
C 16.8840000   18.6020000   22.6160000  
C 16.0620000   19.3530000   23.4310000  
C 12.9220000   17.2500000   23.0090000  
C 13.0220000   16.0870000   22.2480000  
N 14.3640000   16.0050000   21.7750000  
O 10.7580000   15.3660000   22.3090000  
C 11.9950000   15.0780000   21.9540000  
O 12.1920000   13.9670000   21.4120000  
O 18.1490000   19.0080000   22.4710000  
O 16.5380000   20.6070000   23.8510000  
H 12.0550000   17.4890000   23.5470000  
H 10.7720000   16.3090000   22.4390000  
H 14.7170000   15.3920000   21.0160000  
H 18.6900000   18.3210000   21.9910000  
H 17.3910000   20.6990000   23.4420000  
C 17.2850000   16.5230000   21.2670000  
C 17.2000000   16.2610000   19.8710000  
C 17.9140000   15.3430000   19.2500000  
C 18.7510000   14.4150000   19.8740000  
C 18.8190000   14.5860000   21.2630000  
C 18.1240000   15.6150000   21.9070000  
C 16.4160000   16.9390000   18.8610000  
C 16.7220000   16.3230000   17.6440000  
N 17.7280000   15.3080000   17.8620000  
O 15.4800000   17.7740000   16.2870000  
C 16.2730000   16.7590000   16.3040000  
O 16.6190000   16.1820000   15.3050000  
O 19.7400000   13.7740000   21.9690000  
O 18.2160000   15.5910000   23.2820000  
H 15.6320000   17.6960000   18.9630000  
H 15.3510000   17.9300000   17.2110000  
H 18.3790000   14.7690000   17.2620000  
H 20.2190000   13.2270000   21.3170000  
H 18.5240000   14.6740000   23.4970000  
C 19.5850000   13.4280000   19.1290000  
C 20.9370000   13.7300000   18.8990000  
C 21.7700000   12.8980000   18.2260000  
C 21.3740000   11.6230000   17.7720000  
C 20.0360000   11.2670000   18.0020000  
C 19.1680000   12.1730000   18.7040000  
C 21.6960000   14.8970000   19.2430000  
C 23.0420000   14.5180000   18.9200000  
N 23.0580000   13.3190000   18.2690000  
O 24.2360000   16.4540000   19.7270000  
C 24.3090000   15.2490000   19.0940000  
O 25.4360000   14.8470000   18.7140000  
O 19.6080000   10.0100000   17.6640000  
O 17.8770000   11.7690000   18.7860000  
H 21.3300000   15.8420000   19.6770000  
H 23.2780000   16.4600000   19.9100000  
H 23.8980000   12.7930000   17.9910000  
H 18.6840000    9.9350000   17.9970000  
H 17.3440000   12.2670000   19.4730000  
H 22.0510000   10.8310000   17.3520000  
