76
111 
C  9.6440000   19.0830000   20.1610000  
C  9.6570000   20.3800000   20.9470000  
C 10.7990000   20.8550000   21.4970000  
C 11.9850000   20.1080000   21.4220000  
C 12.1370000   18.8970000   20.7660000  
C 10.9910000   18.1840000   20.1230000  
C 11.2020000   22.1300000   22.1190000  
C 12.5080000   21.9530000   22.6250000  
N 12.9720000   20.7770000   22.1040000  
O 12.7100000   24.0120000   23.8260000  
C 13.2880000   22.8180000   23.5060000  
O 14.4400000   22.6070000   23.9020000  
O 10.9910000   17.0810000   19.5740000  
O  8.6730000   18.7100000   19.5760000  
H  8.8050000   21.0860000   20.7750000  
H 10.5420000   22.9420000   22.4720000  
H 11.8060000   24.0260000   23.4810000  
H 13.9360000   20.4600000   22.2240000  
C 13.4900000   18.3520000   20.8260000  
C 14.0760000   17.8870000   22.0610000  
C 15.3430000   17.3760000   22.1040000  
C 16.2470000   17.3410000   20.9740000  
C 15.6940000   17.7960000   19.7640000  
C 14.3520000   18.2680000   19.6640000  
C 13.5600000   17.8310000   23.4080000  
C 14.5890000   17.4370000   24.2050000  
N 15.6470000   17.0170000   23.3830000  
O 13.5080000   17.7870000   26.3170000  
C 14.5790000   17.2310000   25.6770000  
O 15.4960000   16.7020000   26.2450000  
O 16.4260000   17.8000000   18.5980000  
O 13.9450000   18.7390000   18.4600000  
H 12.5760000   18.1780000   23.7630000  
H 13.0110000   18.2440000   25.5740000  
H 16.5460000   16.6290000   23.6150000  
H 17.3930000   17.8220000   18.8770000  
H 14.6030000   18.6300000   17.8350000  
C 17.6190000   16.7960000   21.1660000  
C 17.8050000   15.5380000   21.6800000  
C 19.0550000   15.0240000   21.9950000  
C 20.2690000   15.6950000   21.8170000  
C 20.0860000   16.9600000   21.2570000  
C 18.7820000   17.5530000   21.0160000  
C 16.9080000   14.4270000   21.9280000  
C 17.6300000   13.3110000   22.3120000  
N 18.9860000   13.6370000   22.3440000  
O 15.6150000   12.0480000   22.6620000  
C 17.0090000   11.9850000   22.5780000  
O 17.6370000   10.9150000   22.6510000  
O 21.2250000   17.7290000   20.9900000  
O 18.7090000   18.8820000   20.6300000  
H 15.8190000   14.4800000   21.7260000  
H 15.3940000   12.9680000   22.5340000  
H 19.7850000   13.0430000   22.4550000  
H 22.0200000   17.3490000   21.4500000  
H 19.4940000   19.2840000   20.8770000  
C 21.6470000   15.0170000   22.1160000  
C 22.1630000   13.9360000   21.3220000  
C 23.3880000   13.4350000   21.4890000  
C 24.2910000   13.9300000   22.4210000  
C 23.8730000   14.9710000   23.2730000  
C 22.5800000   15.5040000   23.1470000  
C 21.6330000   13.3400000   20.2130000  
C 22.5320000   12.3610000   19.7810000  
N 23.6190000   12.4100000   20.6490000  
O 21.2320000   11.6850000   17.8930000  
C 22.3420000   11.4630000   18.5920000  
O 23.1510000   10.5740000   18.3570000  
O 24.6530000   15.3460000   24.2790000  
O 22.2020000   16.4670000   23.9840000  
H 20.7220000   13.5540000   19.7400000  
H 20.8020000   12.3950000   18.4690000  
H 24.3970000   11.7120000   20.6970000  
H 24.1650000   16.0070000   24.8090000  
H 21.3120000   16.8110000   23.7620000  
H 25.2160000   13.4840000   22.5310000  
