76
111 
C 21.2440000   11.8160000   25.6520000  
C 22.5870000   12.3000000   25.3660000  
C 22.7650000   13.3720000   24.4430000  
C 21.7440000   14.0170000   23.8330000  
C 20.4220000   13.7200000   24.0920000  
C 20.0540000   12.6490000   25.0010000  
C 23.9530000   14.0170000   24.0040000  
C 23.6000000   14.9860000   23.0050000  
N 22.2650000   14.8960000   22.9380000  
O 25.8190000   15.9210000   22.5410000  
C 24.4770000   15.9320000   22.3270000  
O 23.9090000   16.8430000   21.7670000  
O 18.9430000   12.2490000   25.2380000  
O 21.0670000   10.9500000   26.4610000  
H 23.4030000   11.7800000   25.8600000  
H 24.9460000   13.9280000   24.4320000  
H 26.0640000   15.1450000   23.1060000  
H 21.7340000   15.3370000   22.1550000  
C 19.5260000   14.6840000   23.4470000  
C 19.0630000   14.4770000   22.1210000  
C 18.2690000   15.3900000   21.5520000  
C 17.8010000   16.5360000   22.1980000  
C 18.4320000   16.8320000   23.4520000  
C 19.3320000   15.9250000   24.0580000  
C 19.2510000   13.4950000   21.1320000  
C 18.4340000   13.7630000   20.0170000  
N 17.7980000   14.9570000   20.3400000  
O 18.8470000   11.8830000   18.6610000  
C 18.2290000   12.9950000   18.8030000  
O 17.4320000   13.3880000   17.9340000  
O 18.0550000   17.9360000   24.1980000  
O 19.9470000   16.2280000   25.2010000  
H 20.0450000   12.6950000   21.2060000  
H 19.3860000   11.7530000   19.4540000  
H 17.2300000   15.5870000   19.7250000  
H 17.5370000   18.5970000   23.6620000  
H 20.1380000   17.2220000   25.2540000  
C 16.7940000   17.4320000   21.5170000  
C 15.4720000   16.9530000   21.3600000  
C 14.4950000   17.7210000   20.7630000  
C 14.7410000   18.9980000   20.1590000  
C 16.0660000   19.4410000   20.3270000  
C 17.0820000   18.6610000   20.9200000  
C 14.7660000   15.7870000   21.8040000  
C 13.4280000   15.9590000   21.3710000  
N 13.3110000   17.1670000   20.6780000  
O 12.7290000   13.8860000   22.1690000  
C 12.3170000   15.0350000   21.6210000  
O 11.2130000   15.2320000   21.2050000  
O 16.4080000   20.7160000   19.7990000  
O 18.3670000   19.0670000   20.9790000  
H 15.3300000   15.0170000   22.3040000  
H 13.6370000   13.8460000   22.3320000  
H 12.4440000   17.5100000   20.3080000  
H 15.7510000   21.0070000   19.2090000  
H 18.2690000   19.9830000   20.7570000  
C 13.6140000   19.8480000   19.5890000  
C 12.5420000   20.3480000   20.3950000  
C 11.4390000   20.8870000   19.7960000  
C 11.4120000   21.1860000   18.4320000  
C 12.4590000   20.8200000   17.6110000  
C 13.5730000   20.2510000   18.2060000  
C 12.3360000   20.2820000   21.8060000  
C 11.1210000   20.9210000   22.0080000  
N 10.5720000   21.3480000   20.7710000  
O 11.1360000   20.6320000   24.3260000  
C 10.4590000   21.1450000   23.2840000  
O  9.4060000   21.7910000   23.4470000  
O 12.4520000   21.1630000   16.3190000  
O 14.6330000   19.9140000   17.3940000  
H 13.0650000   19.8630000   22.5110000  
H 11.8790000   20.1350000   23.8090000  
H  9.7610000   21.9460000   20.6700000  
H 13.2900000   20.7840000   15.9810000  
H 15.2920000   19.5290000   18.0230000  
H 10.5430000   21.7410000   18.0610000  
