76
111 
C 11.4850000   17.5640000   16.3110000  
C 10.7390000   18.7440000   16.7350000  
C 11.0640000   19.3020000   17.9650000  
C 12.0950000   18.7710000   18.7550000  
C 12.9110000   17.6950000   18.4560000  
C 12.5930000   16.9400000   17.2550000  
C 10.5400000   20.3740000   18.7270000  
C 11.1880000   20.3950000   19.9640000  
N 12.2260000   19.4660000   19.9010000  
O  9.9650000   22.1920000   20.7590000  
C 10.9140000   21.3390000   21.0990000  
O 11.4970000   21.2780000   22.1620000  
O 13.0790000   15.8640000   16.9260000  
O 11.0310000   16.9480000   15.3440000  
H  9.9700000   19.2120000   16.0910000  
H  9.8040000   21.1000000   18.4850000  
H  9.9320000   22.2920000   19.8230000  
H 12.8620000   19.2370000   20.5620000  
C 14.0030000   17.4020000   19.3780000  
C 13.9410000   16.4760000   20.4090000  
C 15.0740000   16.2990000   21.2240000  
C 16.2350000   17.1040000   21.2480000  
C 16.2060000   18.1590000   20.3060000  
C 15.1170000   18.3180000   19.4130000  
C 12.9740000   15.4500000   20.7070000  
C 13.6530000   14.5320000   21.5620000  
N 14.8460000   15.1920000   21.9720000  
O 11.9970000   12.9070000   21.6090000  
C 13.1040000   13.3530000   22.2240000  
O 13.6060000   12.7690000   23.1720000  
O 17.3520000   18.8200000   20.1730000  
O 15.3040000   19.3250000   18.4920000  
H 12.0250000   15.3830000   20.2180000  
H 11.8560000   13.3970000   20.7850000  
H 15.2620000   14.8810000   22.8410000  
H 18.0380000   18.4780000   20.8220000  
H 16.2720000   19.4680000   18.4340000  
C 17.4080000   16.6930000   22.1190000  
C 18.3230000   15.6640000   21.7790000  
C 19.3680000   15.4030000   22.5960000  
C 19.6450000   16.0010000   23.8340000  
C 18.7650000   17.0710000   24.1370000  
C 17.7420000   17.4580000   23.2420000  
C 18.5020000   14.9000000   20.5970000  
C 19.6080000   14.0750000   20.8300000  
N 20.1350000   14.3730000   22.1070000  
O 19.4820000   13.0770000   18.7280000  
C 20.2190000   13.1400000   19.8520000  
O 21.1750000   12.4080000   20.0000000  
O 18.9490000   17.8630000   25.2840000  
O 17.0390000   18.5410000   23.6620000  
H 17.8110000   15.0910000   19.7750000  
H 18.6310000   13.5630000   18.9350000  
H 20.8810000   13.8300000   22.5600000  
H 19.7870000   17.5980000   25.6440000  
H 17.3950000   18.6480000   24.5270000  
C 20.6440000   15.5430000   24.8370000  
C 21.7800000   16.2810000   25.0890000  
C 22.8240000   15.8410000   25.8720000  
C 22.7700000   14.6070000   26.4830000  
C 21.7010000   13.7900000   26.1840000  
C 20.5800000   14.2280000   25.4050000  
C 22.1930000   17.5520000   24.5640000  
C 23.4620000   17.8360000   25.1090000  
N 23.8270000   16.7010000   25.8720000  
O 23.9270000   19.8450000   23.8060000  
C 24.3240000   19.0190000   24.7850000  
O 25.3830000   19.2020000   25.4430000  
O 21.7290000   12.5310000   26.6180000  
O 19.6090000   13.3900000   25.0090000  
H 21.5490000   18.2620000   23.9970000  
H 23.1480000   19.4530000   23.4820000  
H 24.8180000   16.5050000   26.2370000  
H 20.9380000   12.1480000   26.2400000  
H 18.8650000   13.9940000   24.7300000  
H 23.6800000   14.3380000   27.0800000  
