76
111 
C 19.9820000   11.6610000   16.8630000  
C 19.2320000   11.9420000   15.6320000  
C 18.3860000   13.0040000   15.5450000  
C 18.2660000   13.8800000   16.5940000  
C 18.8150000   13.7960000   17.8500000  
C 19.7250000   12.6360000   18.1330000  
C 17.4820000   13.3770000   14.5820000  
C 16.7520000   14.4920000   15.0640000  
N 17.3620000   14.8740000   16.3060000  
O 15.2720000   14.5650000   13.1950000  
C 15.6310000   15.2110000   14.3040000  
O 15.0850000   16.2700000   14.5950000  
O 20.2120000   12.4650000   19.2340000  
O 20.7250000   10.7140000   16.7740000  
H 19.2690000   11.1690000   14.8290000  
H 17.3390000   12.7820000   13.7550000  
H 15.8190000   13.7690000   13.1420000  
H 17.1440000   15.5920000   16.9000000  
C 18.3480000   14.7070000   18.9250000  
C 17.4320000   14.2660000   19.8980000  
C 16.7760000   15.1030000   20.7670000  
C 17.0920000   16.4520000   20.9880000  
C 18.1090000   16.9150000   20.0240000  
C 18.7400000   16.0990000   19.0420000  
C 16.8930000   12.9460000   20.1260000  
C 15.8540000   13.0800000   21.0790000  
N 15.8770000   14.4130000   21.5460000  
O 15.1480000   10.7940000   21.1070000  
C 15.0030000   12.0230000   21.6780000  
O 14.1470000   12.2610000   22.5150000  
O 18.4550000   18.2570000   20.1110000  
O 19.6220000   16.6370000   18.1760000  
H 16.9510000   12.0360000   19.4570000  
H 15.9450000   10.8890000   20.5710000  
H 15.3640000   14.6980000   22.3890000  
H 17.8580000   18.4760000   20.8830000  
H 19.8320000   17.5920000   18.4270000  
C 16.4550000   17.3560000   21.9840000  
C 16.6460000   17.0670000   23.3570000  
C 16.1450000   17.8560000   24.3900000  
C 15.5670000   19.1360000   24.1550000  
C 15.2540000   19.3530000   22.7820000  
C 15.6790000   18.5200000   21.7600000  
C 17.3030000   15.9750000   24.0450000  
C 17.2000000   16.2660000   25.4570000  
N 16.4420000   17.4050000   25.6590000  
O 18.5350000   14.4190000   26.0310000  
C 17.8620000   15.4740000   26.5000000  
O 17.8400000   15.7070000   27.6770000  
O 14.5110000   20.4770000   22.4910000  
O 15.4990000   18.8480000   20.4640000  
H 17.7560000   15.0900000   23.5670000  
H 18.6140000   14.6100000   25.1080000  
H 16.1520000   17.8490000   26.5190000  
H 14.2800000   21.0420000   23.2600000  
H 15.0360000   19.6720000   20.2730000  
C 15.1650000   20.0830000   25.1980000  
C 16.1080000   20.9740000   25.7430000  
C 15.8180000   21.7790000   26.7600000  
C 14.5210000   21.8860000   27.2620000  
C 13.5820000   20.9530000   26.7650000  
C 13.9320000   19.9820000   25.7970000  
C 17.5090000   21.0780000   25.3930000  
C 17.9860000   21.9860000   26.2970000  
N 16.9130000   22.4570000   27.1500000  
O 20.2920000   21.8730000   25.6590000  
C 19.3680000   22.4130000   26.4900000  
O 19.8290000   23.1680000   27.3180000  
O 12.4080000   20.9330000   27.4030000  
O 12.9900000   18.9710000   25.4180000  
H 18.0710000   20.4160000   24.7240000  
H 19.8560000   21.2410000   25.1300000  
H 17.0900000   22.9260000   28.0120000  
H 11.7480000   20.6550000   26.6980000  
H 13.0800000   18.6270000   24.5470000  
H 14.3390000   22.5870000   28.0290000  
