76
111 
C 18.2780000   10.5950000   17.1530000  
C 18.8760000   11.2570000   15.9480000  
C 19.0650000   12.5770000   15.9120000  
C 18.9030000   13.3560000   17.0300000  
C 18.3080000   12.9210000   18.2400000  
C 17.9430000   11.4960000   18.3640000  
C 19.6810000   13.4350000   14.9160000  
C 19.7550000   14.7390000   15.4690000  
N 19.3990000   14.5570000   16.8170000  
O 20.6070000   15.8330000   13.5090000  
C 20.2270000   15.9880000   14.8480000  
O 20.2610000   17.0990000   15.4040000  
O 17.5570000   10.9880000   19.3960000  
O 17.9830000    9.3970000   17.1470000  
H 19.2350000   10.5950000   15.1140000  
H 19.8400000   13.1590000   13.9090000  
H 20.1770000   15.0170000   13.1670000  
H 19.5450000   15.1970000   17.5970000  
C 18.0250000   14.0360000   19.2570000  
C 16.7040000   14.5210000   19.3820000  
C 16.4650000   15.5010000   20.3130000  
C 17.3780000   16.1850000   21.1090000  
C 18.7210000   15.7140000   20.9060000  
C 19.0110000   14.6150000   20.0360000  
C 15.4360000   14.1460000   18.8440000  
C 14.4590000   14.8470000   19.5860000  
N 15.1180000   15.7590000   20.4010000  
O 12.6120000   13.8670000   18.3920000  
C 13.0240000   14.7530000   19.3990000  
O 12.1460000   15.4270000   19.9970000  
O 19.7460000   16.3300000   21.5940000  
O 20.2970000   14.1750000   19.7940000  
H 15.1870000   13.3120000   18.1890000  
H 13.3960000   13.4000000   18.1040000  
H 14.7430000   16.5130000   20.9480000  
H 19.3490000   16.7550000   22.3480000  
H 20.7890000   14.5380000   20.5710000  
C 17.0220000   17.3350000   22.1070000  
C 16.1230000   17.1060000   23.1530000  
C 15.7410000   18.1240000   23.9900000  
C 16.3010000   19.4460000   23.9640000  
C 17.3320000   19.6590000   22.9750000  
C 17.5920000   18.5930000   22.0220000  
C 15.2740000   15.9830000   23.6090000  
C 14.4930000   16.4570000   24.6830000  
N 14.7240000   17.8110000   24.8100000  
O 13.6920000   14.4160000   25.1420000  
C 13.6840000   15.6740000   25.5930000  
O 13.0470000   16.0740000   26.5420000  
O 17.9850000   20.9060000   22.9290000  
O 18.4880000   18.9370000   21.0900000  
H 15.4760000   14.9700000   23.3800000  
H 14.3420000   14.3950000   24.3830000  
H 14.2180000   18.4030000   25.4560000  
H 17.6730000   21.5210000   23.6870000  
H 18.5350000   19.9450000   21.1840000  
C 15.8300000   20.5490000   24.8650000  
C 16.3390000   20.5480000   26.2520000  
C 16.2310000   21.6080000   27.0360000  
C 15.5440000   22.7260000   26.5770000  
C 15.1150000   22.7890000   25.2020000  
C 15.2420000   21.6720000   24.3430000  
C 17.0260000   19.5060000   26.9580000  
C 17.3170000   20.0350000   28.1870000  
N 16.8230000   21.3270000   28.2040000  
O 18.2950000   18.1520000   29.0950000  
C 18.0670000   19.4240000   29.3370000  
O 18.5020000   19.9910000   30.3180000  
O 14.6710000   23.9820000   24.8720000  
O 14.7280000   21.7060000   23.1070000  
H 17.3230000   18.5500000   26.5520000  
H 17.8080000   17.9540000   28.2050000  
H 16.7990000   21.8950000   29.0100000  
H 14.3920000   23.8980000   23.9450000  
H 14.9320000   20.8710000   22.7040000  
H 15.4160000   23.6190000   27.1790000  
