76
111 
C 10.2000000   19.5470000   23.8630000  
C 10.3710000   21.0950000   23.9630000  
C 11.6980000   21.5850000   23.9620000  
C 12.8170000   20.8260000   23.6370000  
C 12.7580000   19.5060000   23.2490000  
C 11.4820000   18.7570000   23.3720000  
C 12.1660000   22.9400000   24.1410000  
C 13.5530000   22.9630000   23.8870000  
N 13.9020000   21.6750000   23.6660000  
O 13.7460000   25.3280000   23.6590000  
C 14.4180000   24.1230000   23.6910000  
O 15.6300000   24.0540000   23.5360000  
O 11.4180000   17.5580000   23.1610000  
O  9.1260000   19.0410000   24.0800000  
H  9.5100000   21.6230000   24.4330000  
H 11.5120000   23.7310000   24.4220000  
H 12.7930000   25.2010000   23.5840000  
H 14.8440000   21.3290000   23.5750000  
C 14.0320000   18.9080000   22.7030000  
C 14.6890000   18.0210000   23.5070000  
C 15.8780000   17.4040000   23.1360000  
C 16.5460000   17.7280000   21.9140000  
C 15.9190000   18.7120000   21.1020000  
C 14.6550000   19.2350000   21.5260000  
C 14.3030000   17.3810000   24.7930000  
C 15.2390000   16.3730000   25.0200000  
N 16.2250000   16.4020000   24.0390000  
O 13.9870000   15.2410000   26.6620000  
C 15.2010000   15.3950000   26.1530000  
O 16.1190000   14.6880000   26.4990000  
O 16.5500000   19.0050000   19.9860000  
O 13.9490000   19.9110000   20.5700000  
H 13.3190000   17.5430000   25.3460000  
H 13.3990000   15.9550000   26.4650000  
H 16.9320000   15.7380000   23.8970000  
H 17.4860000   18.5250000   19.9420000  
H 14.4840000   19.8050000   19.7090000  
C 17.7250000   16.8450000   21.5090000  
C 17.6830000   15.4470000   21.2430000  
C 18.7850000   14.6810000   21.0480000  
C 20.1080000   15.1630000   20.8790000  
C 20.2160000   16.5700000   21.0410000  
C 19.0530000   17.3470000   21.4450000  
C 16.5490000   14.5540000   21.3100000  
C 17.0430000   13.2680000   20.9920000  
N 18.4250000   13.3490000   20.9140000  
O 14.9340000   12.1670000   21.1930000  
C 16.2680000   11.9880000   20.9610000  
O 16.7730000   10.8950000   20.8140000  
O 21.4290000   17.1610000   20.9860000  
O 19.2540000   18.6360000   21.6880000  
H 15.5020000   14.7990000   21.5700000  
H 14.8430000   13.1320000   21.3720000  
H 18.9800000   12.4600000   20.8470000  
H 22.0590000   16.4830000   20.5260000  
H 20.2360000   18.8310000   21.6880000  
C 21.2520000   14.2830000   20.4530000  
C 21.2800000   13.6750000   19.1640000  
C 22.3000000   12.9050000   18.6980000  
C 23.4120000   12.6570000   19.4950000  
C 23.4440000   13.2200000   20.7900000  
C 22.4200000   14.0630000   21.2170000  
C 20.3950000   13.6690000   18.0770000  
C 20.8760000   12.9100000   16.9990000  
N 22.1040000   12.3990000   17.4490000  
O 19.0850000   12.9980000   15.3770000  
C 20.3740000   12.7040000   15.6380000  
O 21.0360000   12.1400000   14.7700000  
O 24.6510000   13.0390000   21.4830000  
O 22.4540000   14.5130000   22.4550000  
H 19.5270000   14.3120000   17.9970000  
H 18.8470000   13.7010000   15.8920000  
H 22.6710000   11.6890000   16.9710000  
H 24.8220000   13.6650000   22.2140000  
H 21.6180000   14.9110000   22.6570000  
H 24.1910000   11.9900000   19.1840000  
