76
111 
C 21.1150000   17.5710000   27.9560000  
C 21.3690000   16.1370000   28.3410000  
C 21.0310000   15.0900000   27.5430000  
C 20.4660000   15.2550000   26.3200000  
C 20.1490000   16.4950000   25.7470000  
C 20.4070000   17.7080000   26.5670000  
C 21.1540000   13.6600000   27.7960000  
C 20.7940000   12.9880000   26.6430000  
N 20.3200000   14.0100000   25.7740000  
O 21.2040000   10.7670000   27.3780000  
C 20.7120000   11.5570000   26.4320000  
O 20.2780000   11.1640000   25.3940000  
O 20.2240000   18.8680000   26.2790000  
O 21.3350000   18.5660000   28.6430000  
H 21.8070000   15.9900000   29.2730000  
H 21.3430000   13.1990000   28.7470000  
H 21.3900000   11.3820000   28.1320000  
H 20.2060000   13.8450000   24.8110000  
C 19.3360000   16.5600000   24.4840000  
C 18.0730000   17.1200000   24.5710000  
C 17.2550000   17.0600000   23.4560000  
C 17.6630000   16.4790000   22.2290000  
C 18.9840000   15.8940000   22.1460000  
C 19.8240000   15.8970000   23.2700000  
C 17.2660000   17.7710000   25.5780000  
C 16.1010000   18.1220000   25.0160000  
N 16.0300000   17.6050000   23.7650000  
O 15.1220000   19.3780000   26.8970000  
C 15.0390000   18.8820000   25.6380000  
O 13.9540000   18.9910000   25.0770000  
O 19.3290000   15.1350000   21.0320000  
O 21.0030000   15.2020000   23.2360000  
H 17.5420000   18.0660000   26.5750000  
H 16.0460000   19.3800000   27.1540000  
H 15.2490000   17.5900000   23.0770000  
H 18.5660000   15.1870000   20.4270000  
H 20.9850000   14.8270000   22.3300000  
C 16.7740000   16.5850000   21.0980000  
C 16.2970000   17.7660000   20.5340000  
C 15.2130000   17.7040000   19.6610000  
C 14.6830000   16.5350000   19.1010000  
C 15.2200000   15.3540000   19.6390000  
C 16.2140000   15.3800000   20.6520000  
C 16.5720000   19.1470000   20.7450000  
C 15.7170000   19.8490000   19.9320000  
N 14.8260000   18.9700000   19.2870000  
O 16.4050000   22.0470000   20.5820000  
C 15.6350000   21.3580000   19.7640000  
O 14.8950000   21.8860000   18.9820000  
O 14.6670000   14.1650000   19.2510000  
O 16.6480000   14.2260000   21.2250000  
H 17.3580000   19.6070000   21.3820000  
H 16.6570000   21.4140000   21.2320000  
H 14.0020000   19.2430000   18.7200000  
H 13.9820000   14.3180000   18.5400000  
H 16.4100000   13.4610000   20.6800000  
C 13.6670000   16.5490000   18.0010000  
C 14.0290000   16.8060000   16.6880000  
C 13.1550000   16.7940000   15.6830000  
C 11.7710000   16.7240000   15.9220000  
C 11.3790000   16.6350000   17.2450000  
C 12.2940000   16.5920000   18.2900000  
C 15.3270000   16.9660000   16.0970000  
C 15.2420000   17.0060000   14.6900000  
N 13.8410000   16.8800000   14.4570000  
O 17.5400000   17.0550000   14.1190000  
C 16.2970000   17.0870000   13.6320000  
O 16.1390000   17.1030000   12.3970000  
O 10.0840000   16.6740000   17.5220000  
O 11.8700000   16.4380000   19.5790000  
H 16.3460000   17.0390000   16.6280000  
H 17.4190000   17.0000000   15.0750000  
H 13.4460000   16.5910000   13.5140000  
H 10.0320000   17.0240000   18.4860000  
H 12.5410000   16.1720000   20.2230000  
H 11.0030000   16.8790000   15.1730000  
