76
111 
C 17.8940000   16.0120000   29.2780000  
C 18.6230000   17.2090000   29.6250000  
C 18.8430000   18.1290000   28.6240000  
C 18.4710000   17.9880000   27.2710000  
C 17.6490000   16.9690000   26.8640000  
C 17.3830000   15.8580000   27.7980000  
C 19.6620000   19.3410000   28.6590000  
C 19.5810000   19.9580000   27.4180000  
N 18.8370000   19.1120000   26.5830000  
O 21.0180000   21.9370000   27.9280000  
C 20.2740000   21.2480000   27.0060000  
O 20.2900000   21.6400000   25.8620000  
O 16.7490000   14.8650000   27.5280000  
O 17.6100000   15.1850000   30.1540000  
H 18.9250000   17.2360000   30.6890000  
H 20.1510000   19.7090000   29.5150000  
H 20.9290000   21.5720000   28.8580000  
H 18.6220000   19.1770000   25.5990000  
C 17.3200000   16.9420000   25.4880000  
C 17.9190000   16.0310000   24.6110000  
C 17.6290000   16.0860000   23.2760000  
C 16.8820000   17.1370000   22.6730000  
C 16.1410000   18.0030000   23.5680000  
C 16.4620000   17.9780000   24.9560000  
C 19.0180000   15.1530000   24.7710000  
C 19.4040000   14.6650000   23.5160000  
N 18.6490000   15.4120000   22.5700000  
O 21.1250000   13.5500000   24.3820000  
C 20.5200000   13.7790000   23.2040000  
O 20.8640000   13.4390000   22.0880000  
O 15.3500000   18.9310000   23.0440000  
O 15.7990000   18.8620000   25.7620000  
H 19.4070000   14.9860000   25.7300000  
H 20.5490000   13.8310000   25.1170000  
H 18.9580000   15.4680000   21.6200000  
H 15.5430000   18.9080000   22.0860000  
H 15.0090000   19.2690000   25.2120000  
C 16.7520000   17.1440000   21.1810000  
C 16.2630000   16.0580000   20.4890000  
C 15.9650000   16.0890000   19.1750000  
C 16.2990000   17.1510000   18.3230000  
C 16.7950000   18.3260000   19.0210000  
C 17.0550000   18.2870000   20.4150000  
C 15.8750000   14.7040000   20.9810000  
C 15.4960000   14.0080000   19.8570000  
N 15.5300000   14.8440000   18.7480000  
O 15.0970000   11.9290000   21.0170000  
C 15.0900000   12.5770000   19.8090000  
O 14.6470000   12.0900000   18.8090000  
O 17.2330000   19.3180000   18.2530000  
O 17.6100000   19.3440000   20.9560000  
H 15.8120000   14.2880000   22.0310000  
H 15.1600000   12.6660000   21.6320000  
H 15.2090000   14.6170000   17.8600000  
H 17.0780000   19.0840000   17.3000000  
H 17.2840000   20.0770000   20.4910000  
C 16.1950000   16.9570000   16.8130000  
C 14.8880000   16.6950000   16.2600000  
C 14.7970000   16.6540000   14.8930000  
C 15.8400000   16.7320000   13.9420000  
C 17.1170000   16.8840000   14.4820000  
C 17.3360000   17.0090000   15.8400000  
C 13.5690000   16.4750000   16.8240000  
C 12.6950000   16.2850000   15.7670000  
N 13.4650000   16.3840000   14.5880000  
O 10.7390000   16.0530000   16.9870000  
C 11.2730000   16.1880000   15.7720000  
O 10.5520000   16.1690000   14.8200000  
O 18.1620000   16.9400000   13.6040000  
O 18.5310000   16.9890000   16.2860000  
H 13.4100000   16.2040000   17.8620000  
H 11.5300000   15.8630000   17.6060000  
H 13.1390000   16.1680000   13.6560000  
H 18.9940000   16.7300000   14.0660000  
H 18.4320000   16.9310000   17.2800000  
H 15.7800000   16.5800000   12.8320000  
