76
111 
C 12.2500000   16.6200000   15.6750000  
C 11.3610000   17.7680000   15.9560000  
C 11.5900000   18.5130000   17.0890000  
C 12.7120000   18.3490000   17.8700000  
C 13.6620000   17.3720000   17.7420000  
C 13.4680000   16.5000000   16.5970000  
C 10.7870000   19.5040000   17.7260000  
C 11.5630000   20.0140000   18.8040000  
N 12.7180000   19.2620000   18.8560000  
O  9.8220000   21.5720000   19.4480000  
C 11.0790000   21.0680000   19.7100000  
O 11.7620000   21.4790000   20.5870000  
O 14.1840000   15.4930000   16.3310000  
O 12.0300000   15.7730000   14.8490000  
H 10.4410000   17.7750000   15.4510000  
H  9.9300000   19.8320000   17.2160000  
H  9.4310000   21.0490000   18.7710000  
H 13.5310000   19.3410000   19.4600000  
C 14.6600000   17.2500000   18.8020000  
C 14.5410000   16.1290000   19.6600000  
C 15.4660000   15.9670000   20.6550000  
C 16.5000000   16.8740000   20.9860000  
C 16.6190000   18.0130000   20.1310000  
C 15.7090000   18.1810000   19.0630000  
C 13.6860000   14.9800000   19.7800000  
C 14.1950000   14.1870000   20.7890000  
N 15.3350000   14.8250000   21.2880000  
O 12.4720000   12.5690000   20.5590000  
C 13.5710000   12.9160000   21.2840000  
O 14.0000000   12.2300000   22.1510000  
O 17.7400000   18.7120000   20.3070000  
O 15.9220000   19.2100000   18.2470000  
H 12.8310000   14.7870000   19.1400000  
H 12.4770000   13.3180000   19.9370000  
H 16.0360000   14.4440000   21.8700000  
H 18.3770000   18.4250000   20.9840000  
H 16.5580000   19.8620000   18.5950000  
C 17.4000000   16.6160000   22.1460000  
C 18.3030000   15.5130000   22.2870000  
C 19.1350000   15.3680000   23.3870000  
C 19.1680000   16.3150000   24.4410000  
C 18.1680000   17.3510000   24.3380000  
C 17.3910000   17.4790000   23.2260000  
C 18.7560000   14.4430000   21.3720000  
C 19.5580000   13.5870000   22.1360000  
N 19.8260000   14.1540000   23.3850000  
O 19.5040000   11.9250000   20.4640000  
C 20.0700000   12.2960000   21.6210000  
O 20.8690000   11.6010000   22.2160000  
O 17.9940000   18.2540000   25.3040000  
O 16.5990000   18.6320000   23.1240000  
H 18.5460000   14.2990000   20.3340000  
H 18.9200000   12.6190000   20.1080000  
H 20.4700000   13.7490000   24.1070000  
H 18.6480000   18.0170000   25.9110000  
H 16.7240000   19.0260000   23.9700000  
C 20.0680000   16.1750000   25.5870000  
C 21.0950000   17.0920000   25.6680000  
C 22.1240000   17.0130000   26.6420000  
C 22.1760000   15.9600000   27.5600000  
C 21.1640000   14.9570000   27.4920000  
C 20.1410000   15.0330000   26.4630000  
C 21.4060000   18.2870000   24.9110000  
C 22.6150000   18.8400000   25.3370000  
N 23.0350000   18.0770000   26.4930000  
O 22.5740000   20.8470000   24.0010000  
C 23.2730000   20.0730000   24.9100000  
O 24.3790000   20.4740000   25.3310000  
O 21.0770000   14.0280000   28.4910000  
O 19.1350000   14.1500000   26.4210000  
H 20.8670000   18.6300000   24.0100000  
H 21.8170000   20.3310000   23.7510000  
H 23.8850000   18.2420000   27.0480000  
H 20.5500000   13.3200000   28.0720000  
H 18.3510000   14.5600000   26.0250000  
H 22.9700000   15.8200000   28.3570000  
