76
111 
C 23.3480000   12.7300000   20.2860000  
C 22.6850000   11.4710000   19.8030000  
C 21.3460000   11.3220000   19.7790000  
C 20.4240000   12.3140000   20.1320000  
C 20.8720000   13.5790000   20.4450000  
C 22.3110000   13.8950000   20.5620000  
C 20.5520000   10.2610000   19.2350000  
C 19.2040000   10.6360000   19.3910000  
N 19.2050000   11.9410000   19.8130000  
O 18.4570000    8.5170000   19.0660000  
C 18.1080000    9.7440000   19.3730000  
O 16.9670000   10.1150000   19.5530000  
O 22.7380000   15.0140000   20.8490000  
O 24.5500000   12.8940000   20.4090000  
H 23.2580000   10.7260000   19.3650000  
H 20.8740000    9.3170000   18.7720000  
H 19.4150000    8.6120000   18.8550000  
H 18.3190000   12.5220000   19.9390000  
C 19.7520000   14.4950000   20.6750000  
C 19.4710000   14.7590000   21.9960000  
C 18.4080000   15.6000000   22.2660000  
C 17.6270000   16.3470000   21.3700000  
C 17.9980000   16.1550000   20.0100000  
C 19.0600000   15.2710000   19.6740000  
C 20.0320000   14.3200000   23.2760000  
C 19.1620000   14.8250000   24.2540000  
N 18.2310000   15.7100000   23.6480000  
O 20.5020000   14.0130000   25.9990000  
C 19.3410000   14.6230000   25.6610000  
O 18.4750000   14.7670000   26.5020000  
O 17.1910000   16.7320000   19.0590000  
O 19.2480000   15.0310000   18.2970000  
H 20.8480000   13.6300000   23.4220000  
H 21.1130000   13.8750000   25.2580000  
H 17.4800000   16.2300000   24.1080000  
H 16.8940000   17.5560000   19.4210000  
H 18.6810000   15.6270000   17.7050000  
C 16.4920000   17.1860000   21.7940000  
C 16.6550000   18.5870000   21.4790000  
C 15.8030000   19.5440000   21.8530000  
C 14.5960000   19.2570000   22.5460000  
C 14.3480000   17.8930000   22.7770000  
C 15.2210000   16.8340000   22.3750000  
C 17.8470000   19.2250000   20.9230000  
C 17.4820000   20.5660000   20.8970000  
N 16.2450000   20.8070000   21.5080000  
O 19.4780000   21.2530000   19.8060000  
C 18.3080000   21.6050000   20.3330000  
O 17.8660000   22.7400000   20.2670000  
O 13.3200000   17.5870000   23.6150000  
O 14.7720000   15.5830000   22.6260000  
H 18.8010000   18.7710000   20.6510000  
H 19.5920000   20.3270000   20.0010000  
H 15.7060000   21.6620000   21.5700000  
H 12.9640000   18.4600000   23.8950000  
H 13.9130000   15.7180000   23.1210000  
C 13.6580000   20.2920000   23.1680000  
C 12.2710000   20.2410000   22.9100000  
C 11.4030000   21.0780000   23.5080000  
C 11.8150000   22.0200000   24.4810000  
C 13.1890000   22.1110000   24.8190000  
C 14.1580000   21.1920000   24.2310000  
C 11.5520000   19.3840000   22.0210000  
C 10.2350000   19.8390000   22.0340000  
N 10.1500000   20.9050000   22.9820000  
O  9.5230000   18.4500000   20.2270000  
C  9.3070000   19.5680000   20.9170000  
O  8.3130000   20.2220000   20.7900000  
O 13.5440000   23.0370000   25.8350000  
O 15.5090000   21.1970000   24.6420000  
H 12.0190000   18.7550000   21.2910000  
H 10.4100000   18.1860000   20.4860000  
H  9.2550000   21.2680000   23.2880000  
H 14.4910000   23.1080000   25.7800000  
H 15.9360000   20.5920000   23.9920000  
H 11.0940000   22.6820000   24.9910000  
