76
111 
C 18.5550000   15.3050000   28.9590000  
C 19.2970000   16.4600000   29.5270000  
C 19.6750000   17.4430000   28.6970000  
C 19.3660000   17.4000000   27.3330000  
C 18.7060000   16.4110000   26.6070000  
C 18.2100000   15.2820000   27.3830000  
C 20.2130000   18.7370000   28.9770000  
C 20.3020000   19.4630000   27.7510000  
N 19.8400000   18.5650000   26.7650000  
O 21.2130000   21.5230000   28.5710000  
C 20.8040000   20.7960000   27.4840000  
O 20.9450000   21.2350000   26.3360000  
O 17.4170000   14.5050000   26.8990000  
O 18.2430000   14.4120000   29.6610000  
H 19.4660000   16.5120000   30.6000000  
H 20.3770000   19.1620000   29.9520000  
H 21.0460000   20.9940000   29.3860000  
H 19.7290000   18.8350000   25.7800000  
C 18.2960000   16.6780000   25.2100000  
C 18.7220000   15.8370000   24.1580000  
C 18.2830000   15.9210000   22.8970000  
C 17.5280000   17.0260000   22.4320000  
C 17.0360000   17.9120000   23.4650000  
C 17.4230000   17.7650000   24.8580000  
C 19.5950000   14.6920000   24.1770000  
C 19.6820000   14.2910000   22.8240000  
N 18.8390000   15.0760000   22.0420000  
O 21.2470000   12.5540000   23.2070000  
C 20.5050000   13.1610000   22.2840000  
O 20.5170000   12.8620000   21.1330000  
O 16.1130000   18.8290000   23.2540000  
O 16.8040000   18.5190000   25.8530000  
H 20.0720000   14.2880000   25.0760000  
H 21.1870000   13.0960000   24.0210000  
H 18.6170000   14.9450000   21.0360000  
H 16.1470000   19.0140000   22.2980000  
H 15.9720000   19.0130000   25.6310000  
C 16.9920000   17.1110000   21.0400000  
C 16.1140000   16.1250000   20.5400000  
C 15.6730000   16.2010000   19.2400000  
C 16.0400000   17.1790000   18.2660000  
C 16.7470000   18.2350000   18.8380000  
C 17.2540000   18.1780000   20.1810000  
C 15.5320000   14.8470000   21.0360000  
C 14.9350000   14.1760000   19.9300000  
N 14.9870000   15.0910000   18.8540000  
O 14.1680000   12.1890000   20.9070000  
C 14.3550000   12.8250000   19.8110000  
O 14.0150000   12.3860000   18.7330000  
O 17.0730000   19.2980000   18.0810000  
O 18.1400000   19.1300000   20.5460000  
H 15.6700000   14.4570000   22.0770000  
H 14.4310000   12.8700000   21.5490000  
H 14.4490000   15.1150000   18.0200000  
H 16.7210000   19.1080000   17.1910000  
H 18.2090000   19.7780000   19.8930000  
C 15.5720000   17.2730000   16.8290000  
C 14.1770000   17.4400000   16.5650000  
C 13.6500000   17.4800000   15.3040000  
C 14.4250000   17.3050000   14.1890000  
C 15.8190000   17.1290000   14.3910000  
C 16.4490000   17.0780000   15.6870000  
C 13.0250000   17.6050000   17.4970000  
C 11.8930000   17.7300000   16.6830000  
N 12.3220000   17.6940000   15.3260000  
O 10.3120000   17.4760000   18.4420000  
C 10.5240000   17.7580000   17.1470000  
O  9.5970000   18.0770000   16.4020000  
O 16.6040000   17.0060000   13.2980000  
O 17.7470000   16.8940000   15.8500000  
H 13.0160000   17.8180000   18.5510000  
H 11.2260000   17.4240000   18.7800000  
H 11.7970000   17.7940000   14.5370000  
H 17.4580000   16.7050000   13.6340000  
H 17.9040000   16.8470000   16.8060000  
H 14.0280000   17.2500000   13.1850000  
