76
111 
C 10.2270000   16.5510000   18.5370000  
C 10.3830000   16.3500000   17.0830000  
C 11.5950000   16.3210000   16.5390000  
C 12.8040000   16.4050000   17.2720000  
C 12.8070000   16.6420000   18.6220000  
C 11.5440000   16.7370000   19.4010000  
C 11.9290000   16.1130000   15.2070000  
C 13.3000000   16.0380000   15.0920000  
N 13.8480000   16.3470000   16.3600000  
O 13.4290000   15.4160000   12.7920000  
C 14.1260000   15.6450000   13.9170000  
O 15.3230000   15.4740000   13.9450000  
O 11.4180000   16.7400000   20.6240000  
O  9.0980000   16.4850000   18.9430000  
H  9.4690000   16.1820000   16.4750000  
H 11.1390000   15.9630000   14.4620000  
H 12.4580000   15.4420000   12.9810000  
H 14.8380000   16.3650000   16.6180000  
C 14.1520000   16.6310000   19.2810000  
C 14.5920000   17.7960000   19.9900000  
C 15.6310000   17.6460000   20.8810000  
C 16.5580000   16.5390000   20.9250000  
C 16.1980000   15.4870000   20.0430000  
C 14.9650000   15.4650000   19.2700000  
C 13.9580000   19.0670000   20.2440000  
C 14.6170000   19.5940000   21.3300000  
N 15.6420000   18.6890000   21.7850000  
O 13.2490000   21.5940000   21.3500000  
C 14.2270000   20.8740000   21.9490000  
O 14.6610000   21.3180000   23.0130000  
O 17.0460000   14.4220000   19.9110000  
O 14.6330000   14.3830000   18.5030000  
H 13.1110000   19.6150000   19.7900000  
H 13.1040000   21.2830000   20.5130000  
H 16.2010000   18.7010000   22.5950000  
H 17.5630000   14.1800000   20.7810000  
H 15.2520000   13.6950000   18.8060000  
C 17.8120000   16.5390000   21.7350000  
C 17.7030000   16.7220000   23.1450000  
C 18.8310000   16.9550000   23.9090000  
C 20.1610000   16.8880000   23.3960000  
C 20.2670000   16.6850000   22.0040000  
C 19.1000000   16.5180000   21.1910000  
C 16.6280000   16.5410000   24.0960000  
C 17.1620000   16.8590000   25.3770000  
N 18.5470000   17.0940000   25.2610000  
O 15.1700000   16.5010000   26.6920000  
C 16.4970000   16.8660000   26.7190000  
O 17.0870000   17.0210000   27.7830000  
O 21.4770000   16.7090000   21.4130000  
O 19.2220000   16.5410000   19.7450000  
H 15.5980000   16.2640000   23.7860000  
H 14.8950000   16.4940000   25.7220000  
H 19.2590000   17.0270000   26.0390000  
H 22.1770000   16.4240000   22.0310000  
H 20.1780000   16.4360000   19.5380000  
C 21.2840000   17.1230000   24.3410000  
C 21.7030000   16.0470000   25.1260000  
C 22.6390000   16.2800000   26.1030000  
C 23.2750000   17.4990000   26.2590000  
C 23.0010000   18.5400000   25.3510000  
C 21.9450000   18.3760000   24.3860000  
C 21.1120000   14.7500000   25.3580000  
C 21.7400000   14.2280000   26.4570000  
N 22.7320000   15.1620000   26.8870000  
O 20.3330000   12.2750000   26.5750000  
C 21.4170000   12.9430000   27.0800000  
O 21.9470000   12.5140000   28.1140000  
O 23.7150000   19.7550000   25.3890000  
O 21.6450000   19.4700000   23.6050000  
H 20.2340000   14.3650000   24.8580000  
H 20.1280000   12.5830000   25.6990000  
H 23.4300000   15.0630000   27.6590000  
H 23.7810000   20.1100000   24.4570000  
H 20.7100000   19.4560000   23.2640000  
H 24.0800000   17.6290000   27.0240000  
