76
111 
C  9.9820000   18.0710000   18.9200000  
C  9.6930000   19.4100000   19.4890000  
C 10.6570000   20.1440000   20.1240000  
C 11.9720000   19.7770000   20.1970000  
C 12.4070000   18.5400000   19.9210000  
C 11.4420000   17.6090000   19.2130000  
C 10.5600000   21.4720000   20.5520000  
C 11.8140000   21.8360000   20.9520000  
N 12.6270000   20.7450000   20.8110000  
O 11.3820000   24.0950000   21.5560000  
C 12.2760000   23.0950000   21.5850000  
O 13.3780000   23.2860000   22.0510000  
O 11.7080000   16.4610000   19.0010000  
O  9.1490000   17.2990000   18.3890000  
H  8.8180000   19.8770000   19.1300000  
H  9.6440000   22.1450000   20.6840000  
H 10.5550000   23.7140000   21.1810000  
H 13.6050000   20.7440000   21.0900000  
C 13.7520000   18.1590000   20.3640000  
C 13.9820000   17.8260000   21.7060000  
C 15.2420000   17.4970000   22.1400000  
C 16.3910000   17.5070000   21.3350000  
C 16.0910000   17.7260000   19.9390000  
C 14.8300000   18.1340000   19.4930000  
C 13.0740000   17.7580000   22.8360000  
C 13.9280000   17.3600000   23.9080000  
N 15.2610000   17.3160000   23.4840000  
O 12.1970000   16.9760000   25.4930000  
C 13.5100000   17.1920000   25.3120000  
O 14.3180000   17.1670000   26.2130000  
O 17.0850000   17.7150000   19.0340000  
O 14.6730000   18.3250000   18.1670000  
H 11.9940000   17.9200000   22.8270000  
H 11.9170000   17.0770000   24.5400000  
H 16.1010000   17.1990000   24.0510000  
H 17.9420000   17.6690000   19.5370000  
H 15.5360000   18.1810000   17.7920000  
C 17.7650000   17.0580000   21.8090000  
C 17.9400000   15.7680000   22.3420000  
C 19.2420000   15.3970000   22.6890000  
C 20.4480000   16.0510000   22.4470000  
C 20.3160000   17.2440000   21.7510000  
C 19.0430000   17.7760000   21.4980000  
C 17.0540000   14.6790000   22.6500000  
C 17.8310000   13.6540000   23.1420000  
N 19.1410000   14.1650000   23.2840000  
O 16.2500000   12.0260000   22.9910000  
C 17.4700000   12.2340000   23.3370000  
O 18.2360000   11.3650000   23.8020000  
O 21.4890000   17.9660000   21.4730000  
O 19.0340000   19.0410000   21.0020000  
H 15.9610000   14.6660000   22.4290000  
H 15.8360000   12.9130000   22.8690000  
H 19.9550000   13.5650000   23.4900000  
H 22.1950000   17.4090000   21.8190000  
H 19.9120000   19.3420000   20.8280000  
C 21.7920000   15.4250000   22.8420000  
C 22.2530000   14.3070000   22.1090000  
C 23.4700000   13.7580000   22.3230000  
C 24.3830000   14.1980000   23.3440000  
C 23.9010000   15.3090000   24.0640000  
C 22.7170000   15.9680000   23.8090000  
C 21.7710000   13.4720000   20.9730000  
C 22.6590000   12.4320000   20.7440000  
N 23.7140000   12.6360000   21.5910000  
O 21.5140000   11.4670000   18.8620000  
C 22.5560000   11.3520000   19.7680000  
O 23.3260000   10.4220000   19.8990000  
O 24.7230000   15.6210000   25.1320000  
O 22.2940000   17.0380000   24.5430000  
H 20.9480000   13.7650000   20.4080000  
H 21.0260000   12.3330000   19.0420000  
H 24.4210000   11.9430000   21.7070000  
H 24.2370000   16.2440000   25.7380000  
H 21.2860000   17.2430000   24.5180000  
H 25.3460000   13.6300000   23.6000000  
