76
000 
C 19.3980000   12.4780000   17.6850000  
C 18.4520000   11.3440000   17.5840000  
C 17.2550000   11.3580000   18.2220000  
C 16.7300000   12.5010000   18.7850000  
C 17.5560000   13.6460000   18.8600000  
C 18.8090000   13.6870000   18.2950000  
C 16.3260000   10.3400000   18.4150000  
C 15.2480000   10.8400000   19.1440000  
N 15.5600000   12.2070000   19.4440000  
O 14.1280000    8.8050000   19.0550000  
C 14.0920000   10.0350000   19.5740000  
O 13.1800000   10.4930000   20.2200000  
O 19.5180000   14.8390000   18.4470000  
O 20.5450000   12.4570000   17.2540000  
H 18.7280000   10.4190000   17.0300000  
H 16.4910000    9.3590000   18.0020000  
H 14.9530000    8.8690000   18.5160000  
H 18.9040000   15.5530000   18.6890000  
C 17.0020000   14.8360000   19.4740000  
C 16.7160000   14.9100000   20.8670000  
C 16.1640000   16.0320000   21.4720000  
C 15.8340000   17.1760000   20.7840000  
C 16.0760000   17.1620000   19.4380000  
C 16.6660000   16.0290000   18.7970000  
C 16.9980000   14.0050000   21.9550000  
C 16.4580000   14.5220000   23.1060000  
N 15.9310000   15.7880000   22.7900000  
O 16.9390000   12.7000000   24.5700000  
C 16.3720000   13.9500000   24.4280000  
O 15.7460000   14.4510000   25.3320000  
O 15.7260000   18.2580000   18.6660000  
O 16.9090000   16.0660000   17.4440000  
H 17.6420000   13.1080000   21.8620000  
H 17.3580000   12.5050000   23.7190000  
H 15.5320000   16.4450000   23.4360000  
H 15.0140000   18.8380000   19.0300000  
H 16.6870000   16.9720000   17.0750000  
C 15.3560000   18.3240000   21.5740000  
C 16.2490000   19.1950000   22.2900000  
C 15.6980000   20.2250000   22.9530000  
C 14.3290000   20.4840000   23.1940000  
C 13.4640000   19.5920000   22.5010000  
C 13.9570000   18.5590000   21.6710000  
C 17.7300000   19.3650000   22.4840000  
C 17.9110000   20.6150000   23.0240000  
N 16.6650000   21.1170000   23.4520000  
O 20.2050000   20.6180000   22.8350000  
C 19.1090000   21.2090000   23.4390000  
O 19.2090000   22.2740000   24.0570000  
O 12.1630000   19.7830000   22.6310000  
O 13.0650000   17.8220000   20.8700000  
H 18.4680000   18.6160000   22.2160000  
H 19.7830000   19.7680000   22.5720000  
H 16.5070000   21.8660000   24.0910000  
H 11.9370000   20.4260000   23.3350000  
H 12.2290000   17.6690000   21.3440000  
C 13.7740000   21.5330000   24.1380000  
C 13.2940000   22.7700000   23.6640000  
C 12.7040000   23.6940000   24.4970000  
C 12.5880000   23.4390000   25.8590000  
C 12.9160000   22.1480000   26.3560000  
C 13.5100000   21.2340000   25.5240000  
C 13.3140000   23.4350000   22.3800000  
C 12.8100000   24.7280000   22.4680000  
N 12.4320000   24.8210000   23.8110000  
O 13.5310000   25.4340000   20.2600000  
C 12.9000000   25.8260000   21.4040000  
O 12.4720000   26.9850000   21.5570000  
O 12.8700000   22.0230000   27.7360000  
O 14.0500000   20.1270000   26.1110000  
H 13.8850000   23.0290000   21.4930000  
H 13.8140000   24.4900000   20.3410000  
H 12.1650000   25.6330000   24.2620000  
H 13.4170000   21.2110000   27.9230000  
H 14.2010000   19.5920000   25.3880000  
H 12.1770000   24.0970000   26.5650000  
