76
000 
C 18.1990000   12.4860000   26.6780000  
C 17.3160000   12.6720000   27.8020000  
C 16.1040000   13.3250000   27.5370000  
C 15.8120000   14.0430000   26.3100000  
C 16.7580000   14.0110000   25.2460000  
C 17.8880000   13.2320000   25.4450000  
C 15.0830000   13.7150000   28.4560000  
C 14.3580000   14.7200000   27.8410000  
N 14.8100000   14.8970000   26.4860000  
O 13.2400000   15.3070000   29.8160000  
C 13.4200000   15.6270000   28.5440000  
O 12.7310000   16.4770000   28.0280000  
O 18.8070000   13.1300000   24.5270000  
O 19.2030000   11.8160000   26.7750000  
H 17.5690000   12.1660000   28.7070000  
H 15.0950000   13.4650000   29.5010000  
H 13.7900000   14.5290000   29.9800000  
H 18.3820000   13.7460000   23.8040000  
C 16.5430000   14.8890000   24.0980000  
C 16.6730000   16.2600000   24.1980000  
C 16.3210000   17.1030000   23.2340000  
C 15.7150000   16.6890000   22.0300000  
C 15.5390000   15.2850000   21.8980000  
C 15.9570000   14.4220000   22.9300000  
C 16.9620000   17.1280000   25.2450000  
C 16.7770000   18.4730000   24.9310000  
N 16.3100000   18.4250000   23.6290000  
O 17.1230000   19.4920000   27.1020000  
C 16.9390000   19.6690000   25.7570000  
O 16.8650000   20.8040000   25.3150000  
O 15.0470000   14.7910000   20.7330000  
O 15.7620000   13.0760000   22.7600000  
H 17.2750000   16.7910000   26.1930000  
H 17.1950000   18.5120000   27.2170000  
H 16.1880000   19.2170000   23.0110000  
H 14.6720000   15.4770000   20.2010000  
H 15.4250000   12.9520000   21.8940000  
C 15.3700000   17.6200000   20.9090000  
C 16.3550000   18.5400000   20.4340000  
C 16.0710000   19.4620000   19.5070000  
C 14.7980000   19.7150000   18.9750000  
C 13.8160000   18.7800000   19.3760000  
C 14.0510000   17.8310000   20.3940000  
C 17.8040000   18.6470000   20.7150000  
C 18.2400000   19.7250000   19.9310000  
N 17.1440000   20.2260000   19.1890000  
O 20.4230000   19.6160000   20.4530000  
C 19.5500000   20.3570000   19.7670000  
O 19.7410000   21.4120000   19.0920000  
O 12.5480000   18.8350000   18.8690000  
O 13.0240000   17.0070000   20.8360000  
H 18.3260000   17.9800000   21.3130000  
H 19.8070000   19.0000000   20.8880000  
H 17.1910000   20.8940000   18.4520000  
H 12.4880000   19.6130000   18.2940000  
H 12.1990000   17.4870000   20.8010000  
C 14.5260000   20.6900000   17.8540000  
C 14.0800000   20.2550000   16.5180000  
C 13.7690000   21.1720000   15.5710000  
C 13.7930000   22.5780000   15.7670000  
C 14.2580000   22.9870000   16.9930000  
C 14.6230000   22.0810000   18.0230000  
C 13.8210000   18.9440000   15.9650000  
C 13.4440000   19.1230000   14.6340000  
N 13.4200000   20.4550000   14.4060000  
O 12.8300000   16.8760000   14.2230000  
C 13.0310000   18.0780000   13.6750000  
O 12.7880000   18.1990000   12.4660000  
O 14.2980000   24.3220000   17.2200000  
O 14.9540000   22.6560000   19.2700000  
H 13.8760000   17.9600000   16.4360000  
H 12.8000000   17.0160000   15.1540000  
H 13.1890000   20.7730000   13.4320000  
H 14.4150000   24.5500000   18.1200000  
H 15.1110000   21.9660000   19.9330000  
H 13.5690000   23.2290000   14.9650000  
