76
000 
C 17.5770000   10.9880000   18.6000000  
C 16.8370000   10.0090000   19.4280000  
C 16.0560000   10.4810000   20.4290000  
C 15.9920000   11.7760000   20.8260000  
C 16.6520000   12.7950000   20.0770000  
C 17.3270000   12.4050000   18.9200000  
C 15.3630000    9.7130000   21.3700000  
C 14.8040000   10.6510000   22.2440000  
N 15.1930000   11.9430000   21.8710000  
O 13.8190000    9.2790000   23.8720000  
C 14.0240000   10.4790000   23.4780000  
O 13.5910000   11.4200000   24.1530000  
O 17.7380000   13.2440000   17.9680000  
O 18.2650000   10.5860000   17.6580000  
H 16.9710000    8.9960000   19.0970000  
H 15.1930000    8.6350000   21.3220000  
H 14.1690000    8.8110000   23.1250000  
H 17.5130000   14.1330000   18.1900000  
C 16.3670000   14.2110000   20.4480000  
C 16.5340000   14.6810000   21.7720000  
C 16.2780000   16.0110000   22.0180000  
C 15.6100000   16.9080000   21.1420000  
C 15.3780000   16.3950000   19.8450000  
C 15.7840000   15.1020000   19.4920000  
C 17.0590000   14.1000000   22.9560000  
C 17.3060000   15.1770000   23.8680000  
N 16.6990000   16.3290000   23.3030000  
O 18.3950000   13.8990000   25.6020000  
C 17.9670000   15.1170000   25.1610000  
O 18.1290000   16.0500000   25.9000000  
O 14.8640000   17.2940000   18.9110000  
O 15.2880000   14.6550000   18.3390000  
H 17.4490000   13.0730000   23.0910000  
H 17.9560000   13.2980000   25.0280000  
H 16.5800000   17.2080000   23.7110000  
H 14.5090000   18.1240000   19.3660000  
H 15.1060000   15.5260000   17.8160000  
C 15.2980000   18.3240000   21.5290000  
C 16.2400000   19.1770000   21.9820000  
C 16.0160000   20.5070000   22.2070000  
C 14.7030000   21.0210000   22.2240000  
C 13.6600000   20.1500000   21.8990000  
C 13.9600000   18.8050000   21.4870000  
C 17.6690000   19.0680000   22.2530000  
C 18.2180000   20.3350000   22.5520000  
N 17.1800000   21.2480000   22.5260000  
O 20.4760000   19.4190000   22.7410000  
C 19.7100000   20.5640000   22.6010000  
O 20.2640000   21.6870000   22.5810000  
O 12.3710000   20.7610000   21.7040000  
O 12.8400000   17.9700000   21.1760000  
H 18.2740000   18.2330000   22.0270000  
H 19.9020000   18.6930000   22.5640000  
H 17.2150000   22.2570000   22.7000000  
H 12.5120000   21.6910000   22.0200000  
H 12.0000000   18.4080000   21.1830000  
C 14.3710000   22.4070000   22.6180000  
C 13.9940000   23.4040000   21.6360000  
C 13.6340000   24.6660000   22.0630000  
C 13.6040000   25.0770000   23.3800000  
C 13.9200000   24.1340000   24.3960000  
C 14.2750000   22.7740000   24.0190000  
C 13.8480000   23.3020000   20.1920000  
C 13.3800000   24.5540000   19.7820000  
N 13.1890000   25.3560000   20.9810000  
O 13.3110000   24.2280000   17.4440000  
C 13.0200000   25.0510000   18.4870000  
O 12.3980000   26.0770000   18.3110000  
O 13.8830000   24.4810000   25.7250000  
O 14.3050000   21.8440000   25.0330000  
H 13.9780000   22.4070000   19.5840000  
H 13.8130000   23.5200000   17.8950000  
H 12.7820000   26.2750000   21.0300000  
H 14.0020000   23.6930000   26.2120000  
H 14.3540000   20.8800000   24.7220000  
H 13.2130000   26.0910000   23.5280000  
