76
000 
C 18.6560000   12.4180000   25.7300000  
C 17.9020000   12.4070000   27.0160000  
C 16.6450000   12.9600000   27.0530000  
C 15.9820000   13.5420000   25.9520000  
C 16.7580000   13.7140000   24.7090000  
C 18.0160000   13.1450000   24.5750000  
C 15.6400000   12.9200000   28.1400000  
C 14.5460000   13.6220000   27.6380000  
N 14.7510000   13.9800000   26.2650000  
O 13.4500000   13.4780000   29.7280000  
C 13.3720000   13.9640000   28.4680000  
O 12.3510000   14.3190000   27.9250000  
O 18.6820000   13.1880000   23.4310000  
O 19.7540000   11.9100000   25.7000000  
H 18.2530000   11.8150000   27.8960000  
H 15.6870000   12.3560000   29.0430000  
H 14.4010000   13.2290000   29.8300000  
H 18.0030000   13.5930000   22.7810000  
C 16.2820000   14.6660000   23.7450000  
C 16.4560000   16.0260000   24.0380000  
C 16.0460000   17.0220000   23.1890000  
C 15.3230000   16.7770000   22.0060000  
C 15.1450000   15.3790000   21.6840000  
C 15.5470000   14.3270000   22.5620000  
C 17.2210000   16.7650000   25.0550000  
C 17.1350000   18.1580000   24.7400000  
N 16.3660000   18.2900000   23.6090000  
O 18.3220000   18.8810000   26.6430000  
C 17.6970000   19.2700000   25.5180000  
O 17.5840000   20.4850000   25.2650000  
O 14.7110000   15.1180000   20.4120000  
O 15.5350000   13.0400000   22.2020000  
H 17.6030000   16.4190000   25.9850000  
H 18.4330000   17.9130000   26.5270000  
H 16.0360000   19.1930000   23.2380000  
H 14.2470000   15.8600000   20.0740000  
H 15.0620000   12.8640000   21.4110000  
C 14.9640000   17.8300000   20.9990000  
C 15.9650000   18.7760000   20.6120000  
C 15.6330000   19.8580000   19.8370000  
C 14.3250000   20.1250000   19.3040000  
C 13.3550000   19.1410000   19.6240000  
C 13.6100000   18.1010000   20.5240000  
C 17.4470000   18.8690000   20.7980000  
C 17.8910000   20.0870000   20.2540000  
N 16.7770000   20.6460000   19.5800000  
O 20.1130000   19.7990000   20.9810000  
C 19.2700000   20.5970000   20.2630000  
O 19.5630000   21.6250000   19.7010000  
O 12.0840000   19.3310000   19.1790000  
O 12.5850000   17.2900000   20.8650000  
H 18.0710000   18.2000000   21.3020000  
H 19.6950000   18.9630000   21.2720000  
H 16.8560000   21.4380000   18.9470000  
H 12.0890000   20.0750000   18.5550000  
H 11.7590000   17.5240000   20.3350000  
C 14.1350000   21.2200000   18.2930000  
C 13.8280000   20.8880000   16.9870000  
C 13.8260000   21.8310000   15.9860000  
C 13.9530000   23.1870000   16.2550000  
C 14.1830000   23.5830000   17.5620000  
C 14.2570000   22.5660000   18.5670000  
C 13.8080000   19.6150000   16.4390000  
C 13.6650000   19.7550000   15.0470000  
N 13.7280000   21.1650000   14.7490000  
O 13.4580000   17.4770000   14.5190000  
C 13.5490000   18.7130000   14.0120000  
O 13.4690000   18.8790000   12.8140000  
O 14.4330000   24.8580000   17.7960000  
O 14.5380000   22.8710000   19.9080000  
H 13.6960000   18.6430000   16.9560000  
H 13.5770000   17.7070000   15.4420000  
H 13.7680000   21.6440000   13.8530000  
H 14.5360000   25.0250000   18.7180000  
H 14.3960000   22.0780000   20.4600000  
H 14.0440000   23.9610000   15.5060000  
