76
000 
C 16.9320000   21.0840000   27.9840000  
C 15.7290000   21.4590000   28.6310000  
C 14.4940000   21.2590000   27.9950000  
C 14.3920000   20.7890000   26.6900000  
C 15.5450000   20.1700000   26.1040000  
C 16.7930000   20.4090000   26.6800000  
C 13.2250000   21.7630000   28.3770000  
C 12.3910000   21.4210000   27.2930000  
N 13.1130000   20.8220000   26.2690000  
O 10.4480000   22.3820000   28.1270000  
C 10.9660000   21.6250000   27.0830000  
O 10.2760000   21.1660000   26.1710000  
O 18.0160000   20.1250000   26.0920000  
O 18.0050000   21.3890000   28.4320000  
H 15.8090000   21.7990000   29.6760000  
H 13.0020000   22.1500000   29.3370000  
H 11.2310000   22.6420000   28.5920000  
H 17.8950000   20.1630000   25.1440000  
C 15.4100000   19.3720000   24.9060000  
C 15.4700000   20.0640000   23.6650000  
C 15.3570000   19.3660000   22.4900000  
C 15.2210000   17.9760000   22.4480000  
C 15.1940000   17.2810000   23.7100000  
C 15.3050000   17.9980000   24.9460000  
C 15.5640000   21.4610000   23.3220000  
C 15.4760000   21.5110000   21.9580000  
N 15.3220000   20.2450000   21.4270000  
O 15.4290000   23.8660000   21.9080000  
C 15.4520000   22.7580000   21.2170000  
O 15.3220000   22.7520000   19.9940000  
O 14.9860000   15.9470000   23.8080000  
O 15.3220000   17.4150000   26.1990000  
H 15.8260000   22.2730000   24.0470000  
H 15.0810000   23.5100000   22.7750000  
H 15.1190000   20.0240000   20.4590000  
H 14.9840000   15.4940000   22.9670000  
H 15.1520000   16.4880000   26.0470000  
C 15.2070000   17.2110000   21.1730000  
C 16.3470000   17.0560000   20.3550000  
C 16.3160000   16.1920000   19.2680000  
C 15.1950000   15.5160000   18.7510000  
C 14.0080000   15.6770000   19.5140000  
C 13.9940000   16.5220000   20.7370000  
C 17.7410000   17.4830000   20.5170000  
C 18.4840000   17.0300000   19.3700000  
N 17.5720000   16.1530000   18.6430000  
O 20.6310000   18.0560000   19.8730000  
C 19.9640000   17.1160000   19.0900000  
O 20.5760000   16.4660000   18.2210000  
O 12.8930000   15.0780000   19.0720000  
O 12.9260000   16.5540000   21.5570000  
H 18.1450000   18.1060000   21.3410000  
H 19.9310000   18.5310000   20.3730000  
H 17.9270000   15.6280000   17.8280000  
H 13.1460000   14.3350000   18.5810000  
H 12.2100000   15.9220000   21.2190000  
C 15.2390000   14.7550000   17.4570000  
C 16.0770000   13.5980000   17.3060000  
C 16.1080000   12.9260000   16.1400000  
C 15.3480000   13.3010000   15.0200000  
C 14.6390000   14.5410000   15.0520000  
C 14.5270000   15.2410000   16.2840000  
C 16.9310000   12.8480000   18.2550000  
C 17.4810000   11.7830000   17.5670000  
N 16.9430000   11.8140000   16.2590000  
O 18.7720000   11.0640000   19.3720000  
C 18.4540000   10.7920000   18.0970000  
O 18.9570000    9.8530000   17.5200000  
O 13.9220000   15.0150000   13.9810000  
O 13.7510000   16.3220000   16.4190000  
H 17.0280000   13.0560000   19.3550000  
H 18.3050000   11.8770000   19.6010000  
H 17.2510000   11.2480000   15.5450000  
H 13.3810000   15.8150000   14.2280000  
H 13.8550000   16.5770000   17.3240000  
H 15.3890000   12.8130000   14.0770000  
