76
000 
C 17.4330000   14.5710000   15.1760000  
C 17.0170000   13.1670000   15.2950000  
C 16.3350000   12.7230000   16.3880000  
C 15.8780000   13.5740000   17.4230000  
C 16.1410000   14.9620000   17.2910000  
C 16.9950000   15.4290000   16.2720000  
C 15.8730000   11.4530000   16.6900000  
C 15.1850000   11.5500000   17.9360000  
N 15.2120000   12.8860000   18.3380000  
O 14.5880000    9.2430000   18.0630000  
C 14.6500000   10.4420000   18.7710000  
O 14.1590000   10.6140000   19.8850000  
O 17.4390000   16.7320000   16.2050000  
O 18.1850000   14.9660000   14.2800000  
H 17.1810000   12.5550000   14.3720000  
H 16.0930000   10.6200000   16.0670000  
H 14.7330000    9.5070000   17.1820000  
H 16.9380000   17.1650000   16.8970000  
C 15.6730000   15.8050000   18.4430000  
C 16.3520000   15.6770000   19.6780000  
C 15.9240000   16.3960000   20.7560000  
C 14.8690000   17.3480000   20.7680000  
C 14.0840000   17.3570000   19.5890000  
C 14.5140000   16.6260000   18.4320000  
C 17.5300000   14.9160000   20.0280000  
C 17.7240000   15.1610000   21.3270000  
N 16.8260000   16.0800000   21.7560000  
O 19.4710000   13.5010000   21.4790000  
C 18.6820000   14.3590000   22.1410000  
O 18.8800000   14.5840000   23.3180000  
O 13.0400000   18.1780000   19.4300000  
O 13.7070000   16.5380000   17.2980000  
H 18.0750000   14.2260000   19.3550000  
H 19.3590000   13.6740000   20.5730000  
H 16.7530000   16.3210000   22.7700000  
H 12.6570000   18.4360000   20.3320000  
H 12.7430000   16.8660000   17.4600000  
C 14.5830000   18.1810000   21.9850000  
C 15.6820000   18.8180000   22.6330000  
C 15.5130000   19.4940000   23.7890000  
C 14.3230000   19.5270000   24.4670000  
C 13.1730000   19.0090000   23.8230000  
C 13.3540000   18.2550000   22.6250000  
C 17.1410000   18.9930000   22.2860000  
C 17.6550000   19.8910000   23.2190000  
N 16.6880000   20.1120000   24.2200000  
O 19.8870000   19.9790000   22.4300000  
C 18.9860000   20.4730000   23.2860000  
O 19.2670000   21.3740000   24.0600000  
O 11.9660000   18.9220000   24.4530000  
O 12.2020000   17.6240000   22.1540000  
H 17.6490000   18.5220000   21.3920000  
H 19.4890000   19.2330000   21.9350000  
H 16.7340000   20.5860000   25.0910000  
H 12.0060000   19.4710000   25.2890000  
H 11.5710000   17.6900000   22.8460000  
C 14.1920000   20.4840000   25.6650000  
C 14.3930000   21.8640000   25.5950000  
C 14.2980000   22.6320000   26.7270000  
C 14.1530000   22.0930000   27.9920000  
C 13.8810000   20.7040000   28.0600000  
C 13.7790000   19.9080000   26.9160000  
C 14.7990000   22.6880000   24.4790000  
C 14.8510000   23.9410000   24.9940000  
N 14.5960000   23.8940000   26.3480000  
O 15.2310000   25.0390000   22.8460000  
C 15.1250000   25.1870000   24.1970000  
O 15.1520000   26.2940000   24.7330000  
O 13.6420000   20.1150000   29.1860000  
O 13.4680000   18.5870000   26.9770000  
H 15.0060000   22.4090000   23.4540000  
H 15.3380000   24.1000000   22.7880000  
H 14.2670000   24.7430000   26.8010000  
H 13.0520000   19.2990000   28.9410000  
H 13.5740000   18.1770000   26.0920000  
H 14.2710000   22.6610000   28.8700000  
