76
000 
C 16.9470000   15.4100000   14.6580000  
C 16.7270000   13.9950000   14.6030000  
C 16.1330000   13.4250000   15.7680000  
C 15.7870000   14.0440000   16.9520000  
C 15.9800000   15.4800000   16.9860000  
C 16.5360000   16.1460000   15.9010000  
C 15.7580000   12.0690000   15.9080000  
C 15.0930000   12.0640000   17.1280000  
N 15.1690000   13.2260000   17.7970000  
O 14.5350000    9.7370000   16.8470000  
C 14.5120000   10.8110000   17.6540000  
O 13.9330000   10.7250000   18.7190000  
O 16.8370000   17.4560000   15.9760000  
O 17.3570000   16.0060000   13.7010000  
H 17.0030000   13.4410000   13.6890000  
H 15.8000000   11.3570000   15.0900000  
H 15.0000000   10.0890000   16.0590000  
H 16.0090000   17.8730000   16.2160000  
C 15.6920000   16.1440000   18.2950000  
C 16.3120000   15.8000000   19.4930000  
C 15.9910000   16.4630000   20.6630000  
C 15.0280000   17.4750000   20.7940000  
C 14.3810000   17.7960000   19.6240000  
C 14.7820000   17.2350000   18.3850000  
C 17.2630000   14.8400000   19.8570000  
C 17.5620000   15.0140000   21.2400000  
N 16.6540000   15.9700000   21.7460000  
O 19.2660000   13.3790000   21.3110000  
C 18.5140000   14.2150000   22.0470000  
O 18.6930000   14.3500000   23.2320000  
O 13.4500000   18.8380000   19.6000000  
O 14.2730000   17.7090000   17.2550000  
H 17.6470000   14.0250000   19.2300000  
H 18.7350000   13.1710000   20.5840000  
H 16.5050000   16.3770000   22.6680000  
H 13.4130000   19.1490000   20.5400000  
H 13.4210000   18.1340000   17.4360000  
C 14.9560000   18.1330000   22.1680000  
C 16.0450000   18.7010000   22.8380000  
C 15.9040000   19.2100000   24.1180000  
C 14.7220000   19.1910000   24.8250000  
C 13.6540000   18.7100000   24.1400000  
C 13.7000000   18.2870000   22.8140000  
C 17.4700000   18.7730000   22.6430000  
C 18.0300000   19.4150000   23.6990000  
N 17.0450000   19.7600000   24.6100000  
O 20.1260000   19.5360000   22.6390000  
C 19.4500000   19.7780000   23.7830000  
O 19.9130000   20.1810000   24.8280000  
O 12.4110000   18.6720000   24.7630000  
O 12.5440000   17.8690000   22.2230000  
H 18.0410000   18.5870000   21.6790000  
H 19.4400000   19.2430000   22.0170000  
H 17.2520000   20.2080000   25.4680000  
H 12.4080000   18.9250000   25.7560000  
H 11.7340000   17.9840000   22.7970000  
C 14.5600000   19.9660000   26.0830000  
C 14.4670000   21.3480000   25.9290000  
C 14.3020000   22.1180000   27.0590000  
C 14.0510000   21.6060000   28.3330000  
C 14.0660000   20.1720000   28.5470000  
C 14.3800000   19.4090000   27.4050000  
C 14.3710000   22.2150000   24.7790000  
C 14.1870000   23.5170000   25.3030000  
N 14.2490000   23.4140000   26.6970000  
O 14.3610000   24.6560000   23.2160000  
C 14.0420000   24.7570000   24.5570000  
O 13.8430000   25.8770000   25.0970000  
O 13.9150000   19.6630000   29.8070000  
O 14.5150000   18.0450000   27.5150000  
H 14.1620000   21.9100000   23.7780000  
H 14.5170000   23.7410000   23.0700000  
H 14.0380000   24.1690000   27.2710000  
H 14.2100000   18.6870000   29.8170000  
H 14.6160000   17.7420000   26.6270000  
H 13.9660000   22.3370000   29.0970000  
