76
000 
C 17.9680000   10.6400000   23.2560000  
C 17.0240000   10.1180000   24.2180000  
C 15.9510000   10.9120000   24.6440000  
C 15.7530000   12.2510000   24.1820000  
C 16.6750000   12.8400000   23.2850000  
C 17.7250000   12.0760000   22.8140000  
C 14.8070000   10.6680000   25.5030000  
C 14.0530000   11.8170000   25.4290000  
N 14.6690000   12.8460000   24.6060000  
O 12.3590000   11.0900000   26.9030000  
C 12.7920000   12.0660000   26.0990000  
O 12.1630000   13.1070000   25.9870000  
O 18.5610000   12.5980000   21.9790000  
O 18.8680000    9.9590000   22.8350000  
H 17.1440000    9.1340000   24.6540000  
H 14.7450000    9.8710000   26.1500000  
H 13.1560000   10.5140000   26.9710000  
H 18.1370000   13.3730000   21.8320000  
C 16.4120000   14.1970000   22.7670000  
C 16.6440000   15.3590000   23.5650000  
C 16.3710000   16.5940000   23.0590000  
C 15.6710000   16.8350000   21.8490000  
C 15.3500000   15.6950000   21.1140000  
C 15.6930000   14.3840000   21.5960000  
C 17.0210000   15.5670000   24.9500000  
C 16.8400000   16.9000000   25.2330000  
N 16.3850000   17.5490000   24.0870000  
O 17.7910000   16.8950000   27.3370000  
C 17.2140000   17.6750000   26.4740000  
O 17.0600000   18.8670000   26.6320000  
O 14.7620000   15.7940000   19.8780000  
O 15.2160000   13.2660000   20.9410000  
H 17.3620000   14.8520000   25.7240000  
H 17.8170000   16.0150000   26.9630000  
H 16.2080000   18.4940000   23.9540000  
H 14.3040000   16.6470000   19.8740000  
H 14.8510000   13.6380000   20.0900000  
C 15.3040000   18.2500000   21.4700000  
C 16.3550000   19.0770000   21.0610000  
C 16.0060000   20.2690000   20.5490000  
C 14.7380000   20.7840000   20.3570000  
C 13.6270000   19.9080000   20.7400000  
C 13.9430000   18.6810000   21.2080000  
C 17.7970000   18.8890000   20.8770000  
C 18.2660000   20.1590000   20.4640000  
N 17.1710000   20.9820000   20.1860000  
O 20.5690000   19.6460000   20.3410000  
C 19.6160000   20.6280000   20.2890000  
O 19.8730000   21.8020000   20.1160000  
O 12.3640000   20.2750000   20.5710000  
O 12.9590000   17.8320000   21.6450000  
H 18.4010000   18.1040000   21.3150000  
H 20.2120000   19.0000000   20.9600000  
H 17.3490000   21.8620000   19.6390000  
H 12.3720000   21.1660000   20.2270000  
H 12.0980000   18.3820000   21.6540000  
C 14.4640000   22.1380000   19.8390000  
C 14.2620000   22.4200000   18.4990000  
C 14.0160000   23.6680000   17.9960000  
C 13.9070000   24.7700000   18.8610000  
C 14.0550000   24.5830000   20.2660000  
C 14.3670000   23.2790000   20.7290000  
C 14.3840000   21.5930000   17.3110000  
C 14.0820000   22.3700000   16.2280000  
N 13.8630000   23.6750000   16.5990000  
O 14.4790000   20.6050000   14.7340000  
C 14.0840000   21.9240000   14.8020000  
O 13.8520000   22.5430000   13.8130000  
O 13.8440000   25.6490000   21.1500000  
O 14.6710000   23.0820000   22.0490000  
H 14.5520000   20.5730000   17.2740000  
H 14.7280000   20.3410000   15.6570000  
H 13.5430000   24.4590000   16.0420000  
H 13.8560000   25.3230000   22.1200000  
H 14.4290000   22.1740000   22.3410000  
H 13.7480000   25.7250000   18.5170000  
