76
000 
C 17.4010000   14.4480000   28.2960000  
C 16.3450000   14.9810000   29.2240000  
C 15.3780000   15.7440000   28.7120000  
C 15.4100000   16.2640000   27.4210000  
C 16.4280000   15.8370000   26.4860000  
C 17.3750000   14.9500000   26.8810000  
C 14.2330000   16.2210000   29.2680000  
C 13.6910000   17.1810000   28.3800000  
N 14.3360000   17.0290000   27.1460000  
O 12.1050000   17.9810000   30.0260000  
C 12.6950000   18.2240000   28.8480000  
O 12.4780000   19.2700000   28.3130000  
O 18.2890000   14.5550000   25.9590000  
O 18.2710000   13.7010000   28.7540000  
H 16.2210000   14.6650000   30.2600000  
H 13.9750000   16.0880000   30.3090000  
H 12.4580000   17.2030000   30.4740000  
H 18.0730000   14.9890000   25.1610000  
C 16.2220000   16.2080000   25.0580000  
C 16.2670000   17.5440000   24.6840000  
C 16.2960000   17.9270000   23.4210000  
C 16.1180000   17.0870000   22.3340000  
C 16.0270000   15.6490000   22.6280000  
C 16.1130000   15.2280000   24.0060000  
C 16.2730000   18.7350000   25.5270000  
C 16.3120000   19.7990000   24.6450000  
N 16.3380000   19.3010000   23.2980000  
O 16.1990000   21.6410000   26.2070000  
C 16.2310000   21.2760000   24.9510000  
O 16.2690000   22.1350000   24.0670000  
O 16.0060000   14.7440000   21.6430000  
O 16.1880000   13.9160000   24.2530000  
H 16.1200000   18.9190000   26.5810000  
H 16.2800000   20.8850000   26.8380000  
H 16.0640000   19.8270000   22.5180000  
H 15.3660000   15.1940000   20.9850000  
H 16.4710000   13.5230000   23.3590000  
C 15.7740000   17.7230000   21.0070000  
C 16.7270000   18.1010000   20.1020000  
C 16.4570000   18.4540000   18.8020000  
C 15.1850000   18.3760000   18.2650000  
C 14.1690000   17.9270000   19.1970000  
C 14.4610000   17.5870000   20.5320000  
C 18.1730000   18.2210000   20.2760000  
C 18.6200000   18.6460000   19.0580000  
N 17.6050000   18.7950000   18.0840000  
O 20.9310000   18.5870000   19.7800000  
C 20.0990000   18.8890000   18.7740000  
O 20.5260000   19.2820000   17.7270000  
O 12.8650000   17.8030000   18.7720000  
O 13.4720000   17.0450000   21.2970000  
H 18.8260000   17.9250000   21.1070000  
H 20.3120000   18.2150000   20.4090000  
H 17.7010000   18.8650000   17.1030000  
H 12.8120000   18.1810000   17.8850000  
H 12.6270000   16.9340000   20.8260000  
C 14.9270000   18.9580000   16.9050000  
C 14.4200000   18.1220000   15.8750000  
C 14.2270000   18.6690000   14.6490000  
C 14.5480000   19.9700000   14.2410000  
C 14.8840000   20.8460000   15.2610000  
C 14.9930000   20.3620000   16.6160000  
C 14.0210000   16.7200000   15.8560000  
C 13.5610000   16.4950000   14.5500000  
N 13.6880000   17.6720000   13.8220000  
O 12.9560000   14.2950000   15.0390000  
C 12.9760000   15.2210000   14.0880000  
O 12.5990000   15.0320000   12.9350000  
O 15.0840000   22.1890000   15.1110000  
O 15.3950000   21.2480000   17.6450000  
H 13.9160000   16.0080000   16.7410000  
H 13.4550000   14.6200000   15.8470000  
H 13.3350000   17.8100000   12.9070000  
H 15.4150000   22.4600000   15.9730000  
H 15.5800000   20.7340000   18.4140000  
H 14.2910000   20.3410000   13.3120000  
