76
000 
C 17.7370000   18.3730000   14.8150000  
C 16.7900000   19.1000000   13.9860000  
C 15.7310000   19.7250000   14.5750000  
C 15.5760000   19.7400000   15.9720000  
C 16.5120000   19.1360000   16.8310000  
C 17.5550000   18.4320000   16.2950000  
C 14.6370000   20.4530000   14.0500000  
C 13.8650000   20.8230000   15.1620000  
N 14.4530000   20.3980000   16.3580000  
O 12.1940000   21.9440000   13.8450000  
C 12.6070000   21.6880000   15.0930000  
O 11.9990000   22.0660000   16.0990000  
O 18.3610000   17.6250000   17.0740000  
O 18.6750000   17.6890000   14.4260000  
H 16.9000000   19.2230000   12.8520000  
H 14.4760000   20.7960000   13.0130000  
H 12.9130000   21.7360000   13.2290000  
H 18.2870000   18.0560000   17.9520000  
C 16.2370000   18.9330000   18.2970000  
C 15.2620000   17.9940000   18.6370000  
C 14.8730000   17.7320000   19.9370000  
C 15.6330000   18.1470000   21.0520000  
C 16.7020000   19.0030000   20.7390000  
C 17.0750000   19.3620000   19.3830000  
C 14.4580000   17.2250000   17.7580000  
C 13.6100000   16.4440000   18.5600000  
N 13.9340000   16.7500000   19.8760000  
O 12.7090000   15.3990000   16.6700000  
C 12.6900000   15.4430000   18.0450000  
O 11.9850000   14.7610000   18.7380000  
O 17.4540000   19.3930000   21.7960000  
O 18.1770000   20.2040000   19.1850000  
H 14.4890000   17.1880000   16.6910000  
H 13.3560000   15.9780000   16.3770000  
H 13.4760000   16.3760000   20.7140000  
H 17.0240000   19.0370000   22.6090000  
H 18.4700000   20.2630000   20.0870000  
C 15.3010000   17.5940000   22.4420000  
C 16.3110000   16.8950000   23.1440000  
C 16.0140000   16.3190000   24.3540000  
C 14.8380000   16.5640000   25.1500000  
C 13.7990000   17.3200000   24.4900000  
C 13.9790000   17.7260000   23.1060000  
C 17.6230000   16.4580000   22.7970000  
C 18.1210000   15.7580000   23.8600000  
N 17.0760000   15.5890000   24.7710000  
O 20.2130000   15.5540000   22.9000000  
C 19.4630000   15.2050000   23.9560000  
O 19.7650000   14.3910000   24.8600000  
O 12.6080000   17.7130000   25.1440000  
O 12.9710000   18.4110000   22.5020000  
H 18.0110000   16.5600000   21.7410000  
H 19.5930000   16.0340000   22.3870000  
H 17.1700000   15.0350000   25.6130000  
H 12.7070000   17.5910000   26.1180000  
H 12.3440000   18.5530000   23.2190000  
C 14.7510000   16.1270000   26.5700000  
C 15.6670000   16.6190000   27.5720000  
C 15.4120000   16.4970000   28.8840000  
C 14.3770000   15.6390000   29.2990000  
C 13.4970000   15.0850000   28.3970000  
C 13.6710000   15.3000000   26.9940000  
C 16.7330000   17.6130000   27.4110000  
C 17.1840000   17.9080000   28.6950000  
N 16.4160000   17.1540000   29.6050000  
O 19.0250000   19.3470000   28.0960000  
C 18.3910000   18.7160000   29.1400000  
O 18.7670000   18.8680000   30.3010000  
O 12.3150000   14.5740000   28.7680000  
O 12.6900000   14.7480000   26.0890000  
H 17.1530000   17.9600000   26.4200000  
H 18.5460000   19.0700000   27.2860000  
H 16.4950000   17.1990000   30.6720000  
H 11.8710000   14.6270000   27.8760000  
H 12.9360000   14.9740000   25.1880000  
H 14.2170000   15.4640000   30.3360000  
