76
000 
C 15.5040000   23.4420000   16.7570000  
C 15.0960000   22.8210000   15.4650000  
C 14.7840000   21.4820000   15.3720000  
C 14.8830000   20.6000000   16.4650000  
C 15.3470000   21.1070000   17.7330000  
C 15.6050000   22.4770000   17.8710000  
C 14.4100000   20.7030000   14.2920000  
C 14.4300000   19.3750000   14.7780000  
N 14.7560000   19.3320000   16.1280000  
O 13.7350000   18.4580000   12.6570000  
C 14.1250000   18.1990000   13.9080000  
O 14.1060000   17.1260000   14.3880000  
O 16.1800000   23.0010000   19.0330000  
O 15.8600000   24.6520000   16.7410000  
H 15.0810000   23.5850000   14.6430000  
H 14.2640000   21.1110000   13.3160000  
H 13.7300000   19.3950000   12.7100000  
H 15.8840000   22.3680000   19.7060000  
C 15.2520000   20.2970000   18.9320000  
C 16.0660000   19.1280000   19.0570000  
C 15.9500000   18.4040000   20.2260000  
C 15.0040000   18.5770000   21.2320000  
C 14.2340000   19.7870000   21.0930000  
C 14.3530000   20.6600000   19.9920000  
C 17.0030000   18.4340000   18.1610000  
C 17.3430000   17.2960000   18.9070000  
N 16.7550000   17.2770000   20.1100000  
O 18.5460000   16.2240000   17.1350000  
C 18.1340000   16.1270000   18.4050000  
O 18.3040000   15.1200000   18.9940000  
O 13.3060000   20.1500000   22.0610000  
O 13.4500000   21.6060000   19.9280000  
H 17.3210000   18.6240000   17.0860000  
H 18.0640000   16.9830000   16.7460000  
H 16.7990000   16.5650000   20.7780000  
H 13.1450000   19.3190000   22.6190000  
H 13.0110000   21.5390000   20.7120000  
C 14.9890000   17.5890000   22.3800000  
C 16.1270000   17.2640000   23.1430000  
C 16.1040000   16.1990000   24.0000000  
C 14.9650000   15.4620000   24.3440000  
C 13.7940000   15.7970000   23.6160000  
C 13.8140000   16.9000000   22.7140000  
C 17.5040000   17.8080000   23.2340000  
C 18.1840000   17.0040000   24.2200000  
N 17.3180000   15.9630000   24.6290000  
O 20.1550000   18.2270000   24.0490000  
C 19.5340000   17.2220000   24.6700000  
O 20.0860000   16.5710000   25.5810000  
O 12.6090000   15.1620000   23.8430000  
O 12.6470000   17.0390000   22.0030000  
H 17.8630000   18.7150000   22.7570000  
H 19.6620000   18.6520000   23.3260000  
H 17.5060000   15.2480000   25.3280000  
H 12.8080000   14.4720000   24.4640000  
H 12.0960000   16.2230000   22.1960000  
C 14.9310000   14.5210000   25.4910000  
C 15.1380000   14.9480000   26.8090000  
C 15.4390000   14.0910000   27.7910000  
C 15.2780000   12.6800000   27.6310000  
C 14.9900000   12.1840000   26.3840000  
C 14.8600000   13.1070000   25.2850000  
C 15.2870000   16.2080000   27.3900000  
C 15.6570000   16.0990000   28.7240000  
N 15.7090000   14.7600000   28.9460000  
O 15.7510000   18.3520000   29.0830000  
C 15.7190000   17.1760000   29.6950000  
O 15.7460000   17.0400000   30.9210000  
O 14.8560000   10.8330000   26.2370000  
O 14.4900000   12.5250000   24.1200000  
H 15.1250000   17.1160000   26.7860000  
H 15.9180000   18.1270000   28.1400000  
H 16.1100000   14.3760000   29.8520000  
H 14.5070000   10.5680000   25.3710000  
H 14.3030000   13.2800000   23.4780000  
H 15.4520000   11.9810000   28.4480000  
