76
000 
C 16.8650000   24.4100000   24.2790000  
C 15.5820000   25.0060000   24.7840000  
C 14.4780000   24.2530000   24.8380000  
C 14.4710000   22.9430000   24.3500000  
C 15.6220000   22.3120000   23.7840000  
C 16.8290000   22.9950000   23.8420000  
C 13.1530000   24.5390000   25.2030000  
C 12.5190000   23.3330000   25.0150000  
N 13.3450000   22.3040000   24.5180000  
O 10.6040000   24.2470000   26.1130000  
C 11.1630000   23.1600000   25.5380000  
O 10.5000000   22.1280000   25.5030000  
O 18.0090000   22.4860000   23.5440000  
O 17.9050000   25.0480000   24.2430000  
H 15.6440000   26.1170000   24.9650000  
H 12.8330000   25.3860000   25.7780000  
H 11.3910000   24.8000000   26.0580000  
H 17.9780000   21.5770000   23.2990000  
C 15.5840000   21.0010000   23.2530000  
C 15.0090000   20.8050000   22.0230000  
C 14.9620000   19.5370000   21.4270000  
C 15.5580000   18.3750000   21.9840000  
C 16.0270000   18.5420000   23.3410000  
C 16.0910000   19.8320000   23.9190000  
C 14.3140000   21.6470000   21.1470000  
C 13.9640000   20.8600000   20.0150000  
N 14.2920000   19.5510000   20.2370000  
O 13.2460000   22.7770000   18.6710000  
C 13.4320000   21.4180000   18.7050000  
O 13.2770000   20.8310000   17.6370000  
O 16.5680000   17.5440000   23.9850000  
O 16.6810000   19.9820000   25.1480000  
H 14.1620000   22.7050000   21.1770000  
H 13.4190000   23.1600000   19.5940000  
H 14.2330000   18.8320000   19.5680000  
H 16.4380000   16.8380000   23.2870000  
H 16.8900000   19.1030000   25.4360000  
C 15.5700000   17.0320000   21.3660000  
C 16.7330000   16.3960000   20.8150000  
C 16.7020000   15.2720000   20.0570000  
C 15.6390000   14.3320000   20.0350000  
C 14.4250000   14.8930000   20.5970000  
C 14.4040000   16.2190000   21.2230000  
C 18.1010000   16.9280000   20.7920000  
C 18.8530000   16.0630000   20.0130000  
N 17.9660000   14.9860000   19.6000000  
O 20.8290000   17.3620000   20.2560000  
C 20.3130000   16.2300000   19.7260000  
O 20.9220000   15.4270000   18.9980000  
O 13.3160000   14.1780000   20.4710000  
O 13.1240000   16.6810000   21.5170000  
H 18.5550000   17.7510000   21.3410000  
H 20.1050000   17.8770000   20.6330000  
H 18.2600000   14.2310000   19.0730000  
H 13.5620000   13.1900000   20.3230000  
H 12.5730000   15.8480000   21.3660000  
C 15.6800000   13.0200000   19.3760000  
C 16.2620000   12.0010000   20.1630000  
C 16.4990000   10.7560000   19.6260000  
C 15.9450000   10.3420000   18.3860000  
C 15.2920000   11.3420000   17.5530000  
C 15.2450000   12.6610000   18.0630000  
C 16.7600000   11.9580000   21.5540000  
C 17.0470000   10.6100000   21.8550000  
N 16.9080000    9.9020000   20.6070000  
O 17.5730000   10.8520000   24.1940000  
C 17.3700000    9.9410000   23.1400000  
O 17.4520000    8.7810000   23.4300000  
O 14.7880000   10.9580000   16.3400000  
O 14.6030000   13.6020000   17.2640000  
H 16.9220000   12.7420000   22.3370000  
H 17.4950000   11.7110000   23.7830000  
H 17.2850000    8.9970000   20.3990000  
H 14.2410000   11.7350000   16.1170000  
H 14.4000000   14.3980000   17.7870000  
H 15.9370000    9.3260000   18.0280000  
