76
000 
C 17.7060000   13.4140000   27.4210000  
C 16.5010000   13.2790000   28.3170000  
C 15.2860000   13.8560000   27.9170000  
C 15.0800000   14.4780000   26.6990000  
C 16.1650000   14.6480000   25.7720000  
C 17.4350000   14.1660000   26.1370000  
C 14.0600000   13.9290000   28.6190000  
C 13.1480000   14.4400000   27.7380000  
N 13.8000000   14.8900000   26.5420000  
O 11.3060000   14.2370000   29.2560000  
C 11.7570000   14.6400000   28.0050000  
O 11.0070000   15.2130000   27.2100000  
O 18.5710000   14.4810000   25.4430000  
O 18.7820000   13.0300000   27.8180000  
H 16.5510000   12.8210000   29.2530000  
H 13.9880000   13.6490000   29.6750000  
H 12.0570000   13.8020000   29.6330000  
H 18.3170000   15.0150000   24.7650000  
C 16.0200000   15.4370000   24.6000000  
C 16.3860000   16.7920000   24.6430000  
C 16.0990000   17.5580000   23.4960000  
C 15.5310000   17.0740000   22.3250000  
C 15.3260000   15.6600000   22.2890000  
C 15.5110000   14.8500000   23.4260000  
C 16.7320000   17.6990000   25.6890000  
C 16.8370000   18.9660000   25.0710000  
N 16.3690000   18.8690000   23.7280000  
O 17.7160000   20.1470000   26.9610000  
C 17.2600000   20.2500000   25.6600000  
O 17.1470000   21.3570000   25.0800000  
O 15.0350000   15.0360000   21.1670000  
O 15.2130000   13.5340000   23.4160000  
H 16.9660000   17.4790000   26.7670000  
H 17.8870000   19.2430000   27.1760000  
H 16.0590000   19.6650000   23.1530000  
H 15.0560000   15.7070000   20.5110000  
H 15.0470000   13.3960000   22.4430000  
C 15.2500000   17.9360000   21.1410000  
C 16.2380000   18.6700000   20.4750000  
C 16.0820000   19.3280000   19.2990000  
C 14.8310000   19.3740000   18.6620000  
C 13.7360000   18.7510000   19.3440000  
C 13.9530000   17.9660000   20.5170000  
C 17.6520000   18.7240000   20.7800000  
C 18.2550000   19.4130000   19.7820000  
N 17.2560000   19.7600000   18.8020000  
O 20.4820000   19.1330000   20.4670000  
C 19.6360000   19.7420000   19.6010000  
O 20.0150000   20.5130000   18.7610000  
O 12.5130000   18.7010000   18.8600000  
O 12.8420000   17.3540000   21.0790000  
H 18.0530000   18.3230000   21.6900000  
H 19.9680000   18.4810000   20.8870000  
H 17.5100000   20.4190000   18.0260000  
H 12.4580000   19.1630000   18.0180000  
H 12.0440000   17.4020000   20.5440000  
C 14.7280000   20.2720000   17.5010000  
C 14.6690000   19.7490000   16.1750000  
C 14.7070000   20.6110000   15.0910000  
C 14.6860000   21.9990000   15.2310000  
C 14.5850000   22.5300000   16.5040000  
C 14.6270000   21.6860000   17.6560000  
C 14.8270000   18.3850000   15.6890000  
C 15.0830000   18.5290000   14.2720000  
N 15.0060000   19.9300000   13.9530000  
O 15.2330000   16.2480000   13.7700000  
C 15.2890000   17.4790000   13.2590000  
O 15.3540000   17.6520000   12.0980000  
O 14.4840000   23.9280000   16.6300000  
O 14.4240000   22.2640000   18.8740000  
H 14.8070000   17.5420000   16.3760000  
H 15.2340000   16.4680000   14.6710000  
H 15.1710000   20.3280000   13.0260000  
H 14.7190000   24.2200000   17.5150000  
H 14.6660000   21.6410000   19.5390000  
H 14.7290000   22.6880000   14.3240000  
