76
000 
C 17.4210000   21.9340000   16.1250000  
C 16.2620000   22.6700000   15.6130000  
C 15.1660000   22.7770000   16.3970000  
C 15.0070000   22.0640000   17.6160000  
C 16.0650000   21.3080000   18.2290000  
C 17.2360000   21.2240000   17.4750000  
C 13.8820000   23.3870000   16.1890000  
C 13.0790000   23.1010000   17.2670000  
N 13.7790000   22.2910000   18.1520000  
O 10.9820000   23.9770000   16.5700000  
C 11.6960000   23.5160000   17.5870000  
O 11.1470000   23.4660000   18.7010000  
O 18.3260000   20.5200000   17.8750000  
O 18.4240000   21.8710000   15.4480000  
H 16.3640000   23.2680000   14.6920000  
H 13.5970000   24.0650000   15.4500000  
H 11.4510000   23.7050000   15.7270000  
H 18.2520000   20.4350000   18.8190000  
C 15.8860000   20.3180000   19.2770000  
C 15.1170000   19.1820000   18.9750000  
C 14.9770000   18.1830000   19.9160000  
C 15.6410000   18.1590000   21.1300000  
C 16.5150000   19.2180000   21.3680000  
C 16.6580000   20.3100000   20.4450000  
C 14.4290000   18.8710000   17.7980000  
C 13.7660000   17.6340000   18.0860000  
N 14.0400000   17.2920000   19.4350000  
O 12.7640000   17.3220000   15.9600000  
C 12.9220000   16.8870000   17.2150000  
O 12.2670000   15.8830000   17.4960000  
O 17.1150000   19.2250000   22.5500000  
O 17.4470000   21.3840000   20.8430000  
H 14.2370000   19.4700000   16.9390000  
H 13.2600000   18.0560000   16.0140000  
H 13.5660000   16.5540000   19.9490000  
H 16.7210000   18.5500000   23.1170000  
H 17.9250000   21.2210000   21.6570000  
C 15.4740000   17.0710000   22.1520000  
C 16.4800000   16.1860000   22.4410000  
C 16.3950000   15.3490000   23.5190000  
C 15.2230000   15.1950000   24.2590000  
C 14.1370000   16.0160000   23.8880000  
C 14.2540000   16.8920000   22.8180000  
C 17.8380000   16.0520000   21.9620000  
C 18.4840000   15.1290000   22.7950000  
N 17.5910000   14.6270000   23.7300000  
O 20.4850000   15.2180000   21.4720000  
C 19.9380000   14.7950000   22.6520000  
O 20.5540000   14.2550000   23.5450000  
O 12.9650000   16.0090000   24.6880000  
O 13.1340000   17.5690000   22.3980000  
H 18.4040000   16.7630000   21.2640000  
H 19.6870000   15.5460000   21.0110000  
H 17.7070000   13.9140000   24.4270000  
H 13.1620000   15.6200000   25.5910000  
H 12.5780000   17.8550000   23.2070000  
C 15.1580000   14.1590000   25.3370000  
C 15.9160000   14.3380000   26.5290000  
C 15.7680000   13.4880000   27.5810000  
C 15.0050000   12.3570000   27.5900000  
C 14.2080000   12.1590000   26.4470000  
C 14.1410000   13.1170000   25.4280000  
C 16.9070000   15.3120000   26.8340000  
C 17.2640000   15.0710000   28.1350000  
N 16.5350000   13.9620000   28.6010000  
O 18.9280000   16.7360000   28.2210000  
C 18.3550000   15.7590000   28.9130000  
O 18.6810000   15.3670000   30.0140000  
O 13.3860000   11.0890000   26.5860000  
O 13.1950000   13.0000000   24.4350000  
H 17.3650000   16.0830000   26.1900000  
H 18.5390000   16.7760000   27.3770000  
H 16.8490000   13.4220000   29.4230000  
H 13.0910000   10.9880000   25.6230000  
H 13.5620000   13.4730000   23.6610000  
H 15.0260000   11.7700000   28.5130000  
