76
000 
C 16.7700000   24.7900000   23.7710000  
C 15.4380000   25.2120000   24.3730000  
C 14.3300000   24.4360000   24.3040000  
C 14.4480000   23.1750000   23.7750000  
C 15.7170000   22.6740000   23.3240000  
C 16.8400000   23.4440000   23.2590000  
C 12.9490000   24.6820000   24.6060000  
C 12.3570000   23.5230000   24.0670000  
N 13.3020000   22.5280000   23.6820000  
O 10.2460000   23.9160000   24.7940000  
C 10.9840000   23.1740000   24.0610000  
O 10.4900000   22.3060000   23.3650000  
O 18.0410000   22.9510000   22.9360000  
O 17.6920000   25.5770000   23.7890000  
H 15.3330000   26.2310000   24.7220000  
H 12.4570000   25.5550000   25.0100000  
H 10.8670000   24.6320000   25.0090000  
H 17.9170000   21.9980000   22.7600000  
C 15.8470000   21.3060000   22.8260000  
C 15.1490000   20.9070000   21.6520000  
C 15.3410000   19.6680000   21.1850000  
C 15.9890000   18.5900000   21.8410000  
C 16.6220000   19.0030000   23.0580000  
C 16.6180000   20.3460000   23.4820000  
C 14.1890000   21.6150000   20.7620000  
C 13.8610000   20.7100000   19.7540000  
N 14.5360000   19.4910000   20.0650000  
O 12.0190000   21.8860000   18.8790000  
C 12.8780000   20.8680000   18.7080000  
O 12.6650000   19.9720000   17.8650000  
O 17.3440000   18.0410000   23.6960000  
O 17.4190000   20.6610000   24.5080000  
H 13.7620000   22.6230000   20.9670000  
H 12.4590000   22.1670000   19.7290000  
H 14.3350000   18.6350000   19.5850000  
H 17.2580000   17.1860000   23.1810000  
H 17.6820000   19.8050000   24.8150000  
C 15.8830000   17.1720000   21.3870000  
C 16.9750000   16.3910000   20.9430000  
C 16.8550000   15.0750000   20.6010000  
C 15.6470000   14.3580000   20.6220000  
C 14.5450000   15.0770000   21.0210000  
C 14.6430000   16.4390000   21.3970000  
C 18.4200000   16.6540000   20.7980000  
C 19.0310000   15.5250000   20.2760000  
N 18.0510000   14.5280000   20.2870000  
O 21.1370000   16.6310000   20.0880000  
C 20.4280000   15.4720000   19.9620000  
O 20.9850000   14.3950000   19.6580000  
O 13.2960000   14.4910000   21.0570000  
O 13.5480000   17.0840000   21.9000000  
H 18.9370000   17.6260000   20.9410000  
H 20.4530000   17.2430000   20.3830000  
H 18.2640000   13.5310000   20.1760000  
H 13.3960000   13.6490000   20.5250000  
H 12.8640000   16.4420000   22.0900000  
C 15.5820000   12.9500000   20.0770000  
C 16.1510000   11.8730000   20.8190000  
C 16.0750000   10.6140000   20.4110000  
C 15.5340000   10.2040000   19.1920000  
C 14.8390000   11.1800000   18.4720000  
C 14.9570000   12.5340000   18.8810000  
C 16.8030000   11.9230000   22.1290000  
C 17.0960000   10.6530000   22.4290000  
N 16.7230000    9.8230000   21.3580000  
O 17.6050000   11.0020000   24.7120000  
C 17.6070000   10.1300000   23.7300000  
O 17.8060000    8.9630000   23.9040000  
O 14.1800000   10.8470000   17.3060000  
O 14.2150000   13.4560000   18.2190000  
H 16.9760000   12.8730000   22.6250000  
H 17.2580000   11.8460000   24.3430000  
H 17.0060000    8.8390000   21.3480000  
H 13.8850000   11.7760000   17.1550000  
H 14.5490000   14.3560000   18.2610000  
H 15.4010000    9.2090000   18.8400000  
