76
000 
C 19.0850000   12.3380000   17.7860000  
C 18.4630000   11.0410000   18.1330000  
C 17.3850000   11.0000000   19.0040000  
C 16.7110000   12.1580000   19.4430000  
C 17.3030000   13.4560000   19.1710000  
C 18.4780000   13.5490000   18.3890000  
C 16.6300000    9.9280000   19.5560000  
C 15.5520000   10.5300000   20.1580000  
N 15.7380000   11.8720000   20.3010000  
O 14.2580000    8.5430000   20.5140000  
C 14.3260000    9.8720000   20.6180000  
O 13.3630000   10.4770000   21.1020000  
O 19.0700000   14.7100000   18.1000000  
O 20.0790000   12.4510000   17.0450000  
H 18.8630000   10.0720000   17.7250000  
H 16.8150000    8.8760000   19.5100000  
H 14.9730000    8.3480000   19.9290000  
H 18.7810000   15.3370000   18.7600000  
C 16.7860000   14.6530000   19.8330000  
C 16.9670000   14.8770000   21.1530000  
C 16.4250000   16.0180000   21.7210000  
C 15.6620000   17.0220000   21.0510000  
C 15.4340000   16.6970000   19.7080000  
C 16.0440000   15.6110000   19.1360000  
C 17.5610000   14.0920000   22.2060000  
C 17.4710000   14.8740000   23.3870000  
N 16.7010000   16.0200000   23.0860000  
O 18.4970000   13.3560000   24.8200000  
C 18.0310000   14.5840000   24.7210000  
O 17.9300000   15.3510000   25.6630000  
O 14.8040000   17.5290000   18.8860000  
O 15.7090000   15.3390000   17.8930000  
H 18.0440000   13.1000000   22.1430000  
H 18.4860000   13.0010000   23.9320000  
H 16.5410000   16.8030000   23.7450000  
H 14.4290000   18.1810000   19.4650000  
H 15.0020000   15.9740000   17.6630000  
C 15.0350000   18.1650000   21.8500000  
C 15.8940000   19.0290000   22.5540000  
C 15.3700000   20.1570000   23.2500000  
C 14.0600000   20.6840000   22.9400000  
C 13.1960000   19.8330000   22.1540000  
C 13.6290000   18.5670000   21.6450000  
C 17.2860000   19.0880000   22.8920000  
C 17.5570000   20.2430000   23.6780000  
N 16.3390000   20.9570000   23.8420000  
O 19.9060000   19.8210000   23.8450000  
C 18.9020000   20.6070000   24.2780000  
O 18.9630000   21.4220000   25.1130000  
O 11.8960000   20.2920000   21.9080000  
O 12.7780000   17.7940000   20.8940000  
H 18.0730000   18.4400000   22.5710000  
H 19.3980000   19.1050000   23.3770000  
H 16.1510000   21.7590000   24.3770000  
H 11.7750000   21.0360000   22.6000000  
H 11.9840000   18.3100000   20.7580000  
C 13.4910000   22.0110000   23.4970000  
C 13.2190000   23.0970000   22.7100000  
C 12.7460000   24.2750000   23.2080000  
C 12.2510000   24.3170000   24.5110000  
C 12.4280000   23.2510000   25.3280000  
C 13.2100000   22.1330000   24.9210000  
C 13.5900000   23.3910000   21.3320000  
C 13.2460000   24.7770000   21.1280000  
N 12.6270000   25.2780000   22.2840000  
O 14.2990000   24.6830000   19.0110000  
C 13.5190000   25.4340000   19.8130000  
O 13.0720000   26.5230000   19.4520000  
O 12.0150000   23.3100000   26.5810000  
O 13.5990000   21.1870000   25.8200000  
H 14.0640000   22.7370000   20.5980000  
H 14.3520000   23.8900000   19.5840000  
H 12.2930000   26.1730000   22.3520000  
H 12.7390000   22.7730000   27.0360000  
H 14.0860000   20.5030000   25.3480000  
H 11.8160000   25.2340000   24.8450000  
