76
000 
C 18.0540000   16.4030000   14.9820000  
C 17.3870000   17.2410000   13.9840000  
C 16.3780000   18.1160000   14.3650000  
C 15.8700000   18.1990000   15.6770000  
C 16.5260000   17.4220000   16.7180000  
C 17.5420000   16.4800000   16.3910000  
C 15.5220000   18.8830000   13.5510000  
C 14.5930000   19.4670000   14.4170000  
N 14.8760000   19.0640000   15.7840000  
O 13.3160000   20.3980000   12.6930000  
C 13.5020000   20.3770000   14.0300000  
O 12.7130000   20.9140000   14.7960000  
O 18.2660000   15.8170000   17.3080000  
O 18.8750000   15.5410000   14.6630000  
H 17.6630000   16.9850000   12.9780000  
H 15.7270000   19.0350000   12.4550000  
H 14.0290000   19.9120000   12.3230000  
H 17.8520000   16.0460000   18.1810000  
C 16.1780000   17.7100000   18.0720000  
C 15.0030000   17.2230000   18.5900000  
C 14.7150000   17.3020000   19.9340000  
C 15.5140000   17.9870000   20.8830000  
C 16.6960000   18.5160000   20.2570000  
C 16.9860000   18.4110000   18.8990000  
C 13.9310000   16.5570000   18.0350000  
C 12.9220000   16.2950000   18.9590000  
N 13.4640000   16.6090000   20.2160000  
O 11.3700000   15.3720000   17.4370000  
C 11.5320000   15.7890000   18.6850000  
O 10.6760000   15.6620000   19.5240000  
O 17.5520000   19.1820000   21.1280000  
O 18.2130000   18.9220000   18.4140000  
H 13.8430000   16.3900000   17.0170000  
H 12.1360000   15.7330000   16.8930000  
H 12.8900000   16.5730000   21.0230000  
H 17.0730000   19.3220000   21.9770000  
H 18.6290000   19.3280000   19.1780000  
C 15.2620000   17.9930000   22.3950000  
C 16.3330000   17.5090000   23.1530000  
C 16.2660000   17.7020000   24.5260000  
C 15.1180000   17.9990000   25.2710000  
C 13.9690000   18.3400000   24.4700000  
C 14.0670000   18.4330000   23.0690000  
C 17.3860000   16.5240000   22.9600000  
C 17.9730000   16.2290000   24.1960000  
N 17.3170000   16.9370000   25.1620000  
O 19.5140000   14.7780000   23.3130000  
C 19.0820000   15.2930000   24.4730000  
O 19.4990000   15.0130000   25.5930000  
O 12.7080000   18.5480000   25.0140000  
O 12.9790000   18.8240000   22.3320000  
H 17.5690000   15.9020000   22.0510000  
H 18.8850000   15.0110000   22.5820000  
H 17.5200000   17.0380000   26.1660000  
H 12.8930000   18.6270000   25.9440000  
H 12.1920000   19.1380000   22.8460000  
C 15.0050000   17.5290000   26.6630000  
C 15.6980000   18.1640000   27.7210000  
C 15.5440000   17.7690000   29.0020000  
C 14.5520000   16.8040000   29.3820000  
C 13.7760000   16.2080000   28.3260000  
C 14.0920000   16.5430000   26.9990000  
C 16.7120000   19.2090000   27.7240000  
C 17.0440000   19.4340000   29.0440000  
N 16.3710000   18.4790000   29.8020000  
O 18.2090000   21.3530000   28.6680000  
C 17.8040000   20.5200000   29.5890000  
O 18.0280000   20.6830000   30.7630000  
O 12.9550000   15.1870000   28.5790000  
O 13.4730000   15.8230000   25.9900000  
H 16.9950000   19.8640000   26.8680000  
H 17.6380000   21.1950000   27.9170000  
H 16.5440000   18.3850000   30.8160000  
H 12.5320000   14.8960000   27.7530000  
H 13.9890000   16.0180000   25.1660000  
H 14.3760000   16.4890000   30.4220000  
