76
000 
C 18.3090000   10.8120000   21.9970000  
C 17.1910000    9.8600000   22.1230000  
C 15.8910000   10.3300000   22.0580000  
C 15.5850000   11.6930000   21.9840000  
C 16.6360000   12.6390000   21.8490000  
C 17.9680000   12.2470000   21.9190000  
C 14.6050000    9.6850000   22.3470000  
C 13.5990000   10.7180000   22.2380000  
N 14.2800000   11.9220000   22.1540000  
O 11.8870000    9.1410000   22.2440000  
C 12.1870000   10.4270000   22.2670000  
O 11.4160000   11.3570000   22.2310000  
O 19.0050000   13.1390000   21.8330000  
O 19.4690000   10.4590000   21.9730000  
H 17.4840000    8.8280000   22.2720000  
H 14.4880000    8.5620000   22.3610000  
H 12.7610000    8.8220000   22.2170000  
H 18.5120000   14.0460000   21.8280000  
C 16.2950000   14.0360000   21.7980000  
C 16.7790000   14.9340000   22.7550000  
C 16.3720000   16.2170000   22.7720000  
C 15.6390000   16.8820000   21.8200000  
C 15.1730000   15.9600000   20.8200000  
C 15.6110000   14.6030000   20.7170000  
C 17.5380000   14.6720000   23.9650000  
C 17.6770000   15.9230000   24.5860000  
N 16.9400000   16.8860000   23.8240000  
O 19.2250000   15.2510000   26.2730000  
C 18.4020000   16.2400000   25.7930000  
O 18.4440000   17.2700000   26.3810000  
O 14.3550000   16.4620000   19.8680000  
O 15.3370000   13.8500000   19.5830000  
H 17.7120000   13.6780000   24.3900000  
H 18.9700000   14.3910000   25.8550000  
H 16.7750000   17.8630000   24.1710000  
H 14.2120000   17.3590000   20.1580000  
H 14.8620000   14.3320000   18.9360000  
C 15.2670000   18.3290000   21.8850000  
C 16.3230000   19.2370000   21.6610000  
C 16.1540000   20.6100000   21.6040000  
C 14.8690000   21.2150000   21.6410000  
C 13.7690000   20.3310000   21.7030000  
C 13.9910000   18.8890000   21.9460000  
C 17.7050000   18.9510000   21.4810000  
C 18.3440000   20.2470000   21.3780000  
N 17.4010000   21.2830000   21.4690000  
O 20.4630000   19.3930000   20.8180000  
C 19.7610000   20.4940000   21.1150000  
O 20.2410000   21.6430000   21.1940000  
O 12.4840000   20.8290000   21.7840000  
O 12.9710000   18.0520000   21.9460000  
H 18.2070000   17.9910000   21.3480000  
H 19.8010000   18.6970000   20.8800000  
H 17.4920000   22.2640000   21.2150000  
H 12.5130000   21.8220000   21.5510000  
H 12.2130000   18.5090000   22.2870000  
C 14.6790000   22.6890000   21.4570000  
C 13.8760000   23.2110000   20.4230000  
C 13.6920000   24.6040000   20.3110000  
C 14.1920000   25.5130000   21.2660000  
C 14.9710000   25.0350000   22.2590000  
C 15.1700000   23.6320000   22.4340000  
C 13.3490000   22.5880000   19.2000000  
C 12.7560000   23.6520000   18.4990000  
N 12.9990000   24.8730000   19.1930000  
O 11.8950000   22.2110000   16.7350000  
C 12.0740000   23.4740000   17.1620000  
O 11.8150000   24.4580000   16.4380000  
O 15.4370000   25.8700000   23.2990000  
O 15.9400000   23.2020000   23.4460000  
H 13.3400000   21.5390000   18.9030000  
H 12.1550000   21.7480000   17.5470000  
H 12.9170000   25.8140000   18.8470000  
H 15.6660000   25.4000000   24.0500000  
H 15.7390000   22.2680000   23.5350000  
H 13.9640000   26.5920000   21.3620000  
