76
000 
C 17.0810000   19.6200000   14.4370000  
C 15.9910000   18.9300000   13.6490000  
C 14.9870000   18.3100000   14.3970000  
C 14.9710000   18.1610000   15.7790000  
C 15.9870000   18.6880000   16.6070000  
C 17.0020000   19.4150000   15.9310000  
C 13.9500000   17.6150000   13.8740000  
C 13.4500000   16.9180000   14.9520000  
N 14.0370000   17.2820000   16.1220000  
O 11.6980000   16.0530000   13.5640000  
C 12.2150000   16.1160000   14.8470000  
O 11.5730000   15.6110000   15.7220000  
O 18.0950000   19.9050000   16.5590000  
O 17.9170000   20.2010000   13.8270000  
H 16.1400000   18.9580000   12.6260000  
H 13.7010000   17.4790000   12.8470000  
H 12.3870000   16.4790000   13.0850000  
H 17.9720000   19.7140000   17.4690000  
C 15.8420000   18.5070000   18.0820000  
C 16.5760000   17.5650000   18.7630000  
C 16.3650000   17.3250000   20.0960000  
C 15.5310000   18.1070000   20.9080000  
C 14.8230000   19.0980000   20.2310000  
C 14.9190000   19.3490000   18.7910000  
C 17.4630000   16.5420000   18.2450000  
C 17.8910000   15.8400000   19.4180000  
N 17.2570000   16.3830000   20.5120000  
O 19.7520000   14.7610000   18.3780000  
C 19.0110000   14.8380000   19.4800000  
O 19.2910000   14.1030000   20.3930000  
O 13.9720000   19.8530000   20.9370000  
O 14.0440000   20.2210000   18.1820000  
H 17.5170000   16.3640000   17.1880000  
H 19.5790000   15.5000000   17.9130000  
H 17.4150000   16.0760000   21.4530000  
H 13.9380000   19.3720000   21.8150000  
H 13.4550000   20.5490000   18.7610000  
C 15.4030000   17.7570000   22.3620000  
C 16.5430000   17.8890000   23.1940000  
C 16.5050000   17.5910000   24.5150000  
C 15.3450000   17.0640000   25.1870000  
C 14.1590000   16.9690000   24.3720000  
C 14.1990000   17.2640000   22.9940000  
C 17.8480000   18.4370000   22.9460000  
C 18.5570000   18.2730000   24.1460000  
N 17.6790000   17.7750000   25.1410000  
O 20.6140000   18.8600000   23.1490000  
C 20.0460000   18.4090000   24.3040000  
O 20.7090000   18.1910000   25.2950000  
O 12.9190000   16.6880000   24.9560000  
O 13.0560000   17.1700000   22.2450000  
H 18.3340000   18.7210000   22.0860000  
H 19.8580000   18.9920000   22.5750000  
H 17.9090000   17.3840000   26.0690000  
H 12.8720000   16.9740000   25.9340000  
H 12.3320000   16.8510000   22.7710000  
C 15.3140000   16.8440000   26.6950000  
C 14.6050000   17.7170000   27.5610000  
C 14.3560000   17.3450000   28.8540000  
C 14.8590000   16.1970000   29.4660000  
C 15.5600000   15.3390000   28.6940000  
C 15.8880000   15.6430000   27.2860000  
C 13.7480000   18.8190000   27.2130000  
C 13.1480000   19.2100000   28.3840000  
N 13.4720000   18.2320000   29.3700000  
O 12.0940000   21.1900000   27.5740000  
C 12.1870000   20.3490000   28.5940000  
O 11.6300000   20.5420000   29.6470000  
O 15.8690000   14.1170000   29.2100000  
O 16.4440000   14.6430000   26.5110000  
H 13.6250000   19.3880000   26.2270000  
H 12.6040000   20.7690000   26.8640000  
H 13.0420000   18.2860000   30.2900000  
H 16.6680000   13.7810000   28.7020000  
H 16.5160000   14.9680000   25.5850000  
H 14.5750000   15.9240000   30.4990000  
