76
000 
C 16.9230000   24.3270000   24.9910000  
C 15.6040000   24.8250000   25.4670000  
C 14.4850000   24.0340000   25.4740000  
C 14.4690000   22.7030000   24.9710000  
C 15.6660000   22.1730000   24.4000000  
C 16.8360000   22.9260000   24.4340000  
C 13.1580000   24.3300000   25.9020000  
C 12.4790000   23.1380000   25.6130000  
N 13.2900000   22.1610000   25.0640000  
O 10.1960000   24.0730000   25.9550000  
C 10.9770000   22.9320000   25.8100000  
O 10.5440000   21.8010000   25.5260000  
O 17.8970000   22.5150000   23.7130000  
O 17.9450000   25.0240000   25.0200000  
H 15.6610000   25.7970000   25.9600000  
H 12.8730000   25.3690000   26.1980000  
H 10.8270000   24.6700000   26.3560000  
H 17.6690000   21.5870000   23.5100000  
C 15.5750000   20.9100000   23.6550000  
C 15.0600000   20.7700000   22.3280000  
C 15.0220000   19.5340000   21.7810000  
C 15.5420000   18.3290000   22.3130000  
C 16.1520000   18.4770000   23.5690000  
C 16.1190000   19.7690000   24.2690000  
C 14.4060000   21.6740000   21.4210000  
C 13.9820000   20.8410000   20.3470000  
N 14.4210000   19.5440000   20.5320000  
O 13.1750000   22.5920000   19.0130000  
C 13.3160000   21.2750000   19.1240000  
O 12.9680000   20.5630000   18.2350000  
O 16.9310000   17.5140000   24.0250000  
O 16.7610000   19.8040000   25.5470000  
H 14.1220000   22.7190000   21.5480000  
H 13.7010000   22.9890000   19.7500000  
H 14.3290000   18.7220000   19.9220000  
H 16.5530000   16.7030000   23.6110000  
H 16.9940000   18.9170000   25.8240000  
C 15.4960000   17.0910000   21.5010000  
C 16.7220000   16.4620000   21.0550000  
C 16.6570000   15.3180000   20.3260000  
C 15.4890000   14.6240000   19.8970000  
C 14.3110000   15.2280000   20.4190000  
C 14.3250000   16.4180000   21.1550000  
C 18.1340000   16.7490000   21.2470000  
C 18.8550000   15.7620000   20.5010000  
N 17.9020000   14.8420000   20.0210000  
O 20.9140000   16.8180000   20.7820000  
C 20.3170000   15.6570000   20.3010000  
O 20.7940000   14.6540000   19.8870000  
O 13.1290000   14.5570000   20.1750000  
O 13.1580000   16.8810000   21.6870000  
H 18.6000000   17.6230000   21.7780000  
H 20.1290000   17.3450000   21.0190000  
H 18.0070000   13.9930000   19.4750000  
H 13.3670000   13.6910000   19.6840000  
H 12.4990000   16.1980000   21.4460000  
C 15.5990000   13.4160000   18.9510000  
C 16.2250000   12.1780000   19.4080000  
C 16.3230000   11.1330000   18.5640000  
C 15.7550000   11.1260000   17.2670000  
C 15.1490000   12.2950000   16.8300000  
C 15.0690000   13.4080000   17.6910000  
C 16.8620000   11.7970000   20.6340000  
C 17.2230000   10.4770000   20.4990000  
N 16.9120000   10.1060000   19.1450000  
O 18.1010000   10.1780000   22.6520000  
C 17.8410000    9.5960000   21.4630000  
O 18.1570000    8.4750000   21.1400000  
O 14.7140000   12.3950000   15.5780000  
O 14.3240000   14.4920000   17.2870000  
H 16.9870000   12.4320000   21.5750000  
H 17.6870000   11.0420000   22.5550000  
H 17.1730000    9.1850000   18.7350000  
H 14.2490000   13.2590000   15.5660000  
H 13.9540000   15.0380000   17.9960000  
H 15.8320000   10.2370000   16.6090000  
