76
000 
C 17.6260000   11.6340000   17.4730000  
C 17.0180000   10.3890000   18.0500000  
C 16.2670000   10.5740000   19.1880000  
C 15.8920000   11.8850000   19.7040000  
C 16.4330000   13.1040000   19.1680000  
C 17.2250000   12.9550000   18.0270000  
C 15.5980000    9.6750000   20.0640000  
C 14.8180000   10.4460000   20.9460000  
N 15.0390000   11.8370000   20.7480000  
O 13.6890000    8.6390000   21.9930000  
C 13.7860000   10.0230000   21.9160000  
O 13.0050000   10.7450000   22.4100000  
O 17.7470000   14.0020000   17.2930000  
O 18.3390000   11.5560000   16.4880000  
H 17.2060000    9.4190000   17.5530000  
H 15.6020000    8.5850000   19.9570000  
H 14.5320000    8.2740000   21.7880000  
H 17.2950000   14.8280000   17.6310000  
C 16.0680000   14.3910000   19.7270000  
C 16.6650000   14.7940000   20.9410000  
C 16.2660000   16.0030000   21.4020000  
C 15.5050000   17.0180000   20.7900000  
C 14.9740000   16.6480000   19.5880000  
C 15.2130000   15.3190000   19.0730000  
C 17.6770000   14.1990000   21.7990000  
C 17.8720000   15.2180000   22.7750000  
N 16.8900000   16.2400000   22.5840000  
O 19.6520000   14.1810000   23.9090000  
C 18.7110000   15.1110000   23.9000000  
O 18.6630000   15.9280000   24.7940000  
O 14.3160000   17.5080000   18.8090000  
O 14.6420000   15.0650000   17.8550000  
H 18.1600000   13.1810000   21.7490000  
H 19.4170000   13.6030000   23.1520000  
H 16.6160000   16.9800000   23.1990000  
H 14.0330000   18.3850000   19.2490000  
H 14.3680000   15.9160000   17.4840000  
C 15.1350000   18.3420000   21.4730000  
C 16.0500000   19.3130000   21.8780000  
C 15.6850000   20.3810000   22.6710000  
C 14.4020000   20.7520000   23.0370000  
C 13.3840000   19.8010000   22.6070000  
C 13.7580000   18.6170000   21.8310000  
C 17.4760000   19.3040000   21.7870000  
C 17.9440000   20.4470000   22.4240000  
N 16.8310000   21.0880000   23.0170000  
O 20.2430000   20.0300000   21.9920000  
C 19.3050000   20.8800000   22.5080000  
O 19.6460000   21.8990000   23.0970000  
O 12.1200000   20.0200000   22.8760000  
O 12.7260000   17.8090000   21.4650000  
H 18.0500000   18.5300000   21.3110000  
H 19.8000000   19.3290000   21.5090000  
H 16.8590000   22.0280000   23.3840000  
H 12.0350000   20.9100000   23.1410000  
H 11.8230000   18.0100000   21.8570000  
C 14.1240000   21.9430000   23.9000000  
C 14.2080000   23.2230000   23.3320000  
C 13.7330000   24.3680000   24.0280000  
C 13.3820000   24.2880000   25.3450000  
C 13.3360000   23.0470000   26.0210000  
C 13.6570000   21.9020000   25.2420000  
C 14.5370000   23.6950000   22.0320000  
C 14.1910000   24.9950000   21.9500000  
N 13.7480000   25.4660000   23.2050000  
O 14.5910000   25.0260000   19.5690000  
C 14.2520000   25.7540000   20.6910000  
O 13.9480000   26.9610000   20.6690000  
O 12.8560000   23.0030000   27.2290000  
O 13.6710000   20.7120000   25.8580000  
H 14.7860000   23.0860000   21.1780000  
H 14.4250000   24.1190000   19.9070000  
H 13.3420000   26.4070000   23.3220000  
H 12.9950000   22.1010000   27.6580000  
H 13.9920000   20.0890000   25.2640000  
H 13.2360000   25.1850000   25.8250000  
