76
000 
C 17.3770000   18.0180000   28.9700000  
C 16.2990000   18.7180000   29.6910000  
C 15.1480000   19.0430000   29.0420000  
C 14.9170000   18.7030000   27.6870000  
C 15.9050000   18.0040000   26.9070000  
C 17.0780000   17.6740000   27.5340000  
C 13.9440000   19.6390000   29.4290000  
C 13.1070000   19.5450000   28.3270000  
N 13.7550000   18.9960000   27.3080000  
O 11.2760000   20.6560000   29.4620000  
C 11.7910000   20.1260000   28.2830000  
O 11.1100000   20.2270000   27.2610000  
O 18.1530000   17.1050000   26.9000000  
O 18.4440000   17.7390000   29.4910000  
H 16.5010000   18.9510000   30.7060000  
H 13.7790000   20.1170000   30.3410000  
H 11.9870000   20.7810000   30.1300000  
H 17.9870000   17.3760000   25.9530000  
C 15.6970000   17.7460000   25.4550000  
C 16.2600000   18.5180000   24.4500000  
C 15.9520000   18.3060000   23.1630000  
C 15.0820000   17.3860000   22.6250000  
C 14.4950000   16.5410000   23.6590000  
C 14.7820000   16.7540000   25.0350000  
C 17.0450000   19.6870000   24.5650000  
C 17.3890000   20.0690000   23.2470000  
N 16.5210000   19.2900000   22.4170000  
O 19.1580000   21.5580000   23.7870000  
C 18.3770000   21.0470000   22.8180000  
O 18.4660000   21.4640000   21.6950000  
O 13.6990000   15.5020000   23.2950000  
O 14.2250000   15.9870000   26.0340000  
H 17.4230000   20.0850000   25.4530000  
H 18.6450000   21.4390000   24.5910000  
H 16.3670000   19.3170000   21.3840000  
H 13.5720000   15.5650000   22.3580000  
H 13.6580000   15.2680000   25.7580000  
C 14.9050000   17.2150000   21.1600000  
C 16.0350000   16.9180000   20.3500000  
C 15.9140000   16.7770000   18.9880000  
C 14.7760000   17.1320000   18.2080000  
C 13.6140000   17.4030000   19.0140000  
C 13.6750000   17.4530000   20.4760000  
C 17.4450000   16.8290000   20.6270000  
C 18.0590000   16.9010000   19.3730000  
N 17.1600000   16.6920000   18.3570000  
O 20.1670000   17.2960000   20.2970000  
C 19.4740000   17.1080000   19.1260000  
O 20.0260000   17.1220000   18.0680000  
O 12.3570000   17.5030000   18.4180000  
O 12.6830000   17.7880000   21.2600000  
H 17.9850000   16.8590000   21.6000000  
H 19.5680000   17.2480000   20.9940000  
H 17.3360000   16.5820000   17.3470000  
H 12.3540000   17.5630000   17.4620000  
H 11.8710000   17.7270000   20.7850000  
C 14.6880000   17.2470000   16.7120000  
C 15.0580000   16.1400000   15.9350000  
C 15.1210000   16.3040000   14.5710000  
C 14.8480000   17.5140000   13.8920000  
C 14.6140000   18.6220000   14.6730000  
C 14.6350000   18.4920000   16.0670000  
C 15.1820000   14.7140000   16.2850000  
C 15.4680000   14.1200000   15.0570000  
N 15.3030000   15.0950000   14.0060000  
O 15.9950000   12.0930000   16.0360000  
C 16.0140000   12.7920000   14.8630000  
O 16.2390000   12.2590000   13.8000000  
O 14.4120000   19.8320000   14.0720000  
O 14.6530000   19.6450000   16.7880000  
H 15.3270000   14.2630000   17.2850000  
H 16.0010000   12.8240000   16.7380000  
H 15.4900000   14.8360000   13.0310000  
H 14.2710000   20.4700000   14.7890000  
H 15.0070000   19.5740000   17.6710000  
H 14.8970000   17.6460000   12.8470000  
