76
000 
C 17.7320000   12.5540000   16.6810000  
C 17.1120000   11.2780000   17.1430000  
C 16.2070000   11.2420000   18.1790000  
C 15.8870000   12.3750000   18.9270000  
C 16.4090000   13.6210000   18.4740000  
C 17.2620000   13.7580000   17.3920000  
C 15.6520000   10.1170000   18.8350000  
C 14.9840000   10.6960000   19.9280000  
N 15.0970000   12.0870000   19.9500000  
O 14.4120000    8.5610000   20.9950000  
C 14.3330000    9.9150000   21.0200000  
O 13.7760000   10.4880000   21.9630000  
O 17.9550000   14.8470000   17.0940000  
O 18.5930000   12.4260000   15.8290000  
H 17.3910000   10.4210000   16.5460000  
H 15.7000000    9.1640000   18.3980000  
H 15.0610000    8.3620000   20.3490000  
H 17.5580000   15.7130000   17.4060000  
C 16.0290000   14.7590000   19.3180000  
C 16.4960000   14.8910000   20.6180000  
C 16.0750000   15.9290000   21.3740000  
C 15.3310000   16.9840000   20.9410000  
C 14.7580000   16.8330000   19.6190000  
C 15.1700000   15.7370000   18.8010000  
C 17.3210000   14.0560000   21.4230000  
C 17.3460000   14.7400000   22.6600000  
N 16.6610000   15.9730000   22.6190000  
O 18.7740000   13.1410000   23.7320000  
C 18.0080000   14.2500000   23.9010000  
O 18.0470000   14.8020000   24.9880000  
O 13.9340000   17.7920000   19.1500000  
O 14.7160000   15.7470000   17.4860000  
H 17.8640000   13.1110000   21.1660000  
H 18.8330000   13.1040000   22.7730000  
H 16.7030000   16.7560000   23.2530000  
H 13.7520000   18.6430000   19.6550000  
H 13.8780000   16.1270000   17.4670000  
C 14.9810000   18.1930000   21.7230000  
C 16.0060000   19.1400000   22.0680000  
C 15.6810000   20.1940000   22.9220000  
C 14.3520000   20.5030000   23.4270000  
C 13.3340000   19.5230000   23.0830000  
C 13.7040000   18.4690000   22.2030000  
C 17.4680000   19.1620000   22.0020000  
C 17.8940000   20.3880000   22.5740000  
N 16.7800000   21.0580000   23.1480000  
O 20.2520000   19.8920000   22.2080000  
C 19.3240000   20.8720000   22.5440000  
O 19.6150000   22.0110000   22.7920000  
O 12.0950000   19.5060000   23.6130000  
O 12.7670000   17.4920000   22.0170000  
H 18.1900000   18.4640000   21.5990000  
H 19.8170000   19.0510000   22.2050000  
H 16.7910000   22.0000000   23.6000000  
H 11.8200000   20.3070000   24.1440000  
H 11.9070000   17.8630000   22.4510000  
C 14.0640000   21.6690000   24.2890000  
C 14.1060000   22.9960000   23.8020000  
C 13.9870000   24.0820000   24.6360000  
C 13.7960000   23.9870000   26.0110000  
C 13.7250000   22.7070000   26.5170000  
C 13.8190000   21.5590000   25.6950000  
C 14.1560000   23.5760000   22.4620000  
C 14.1570000   25.0080000   22.5570000  
N 14.0610000   25.2800000   23.9010000  
O 14.1790000   25.5270000   20.1670000  
C 14.1360000   25.9720000   21.4490000  
O 14.1690000   27.1780000   21.5970000  
O 13.6310000   22.5680000   27.8620000  
O 13.8670000   20.3250000   26.2520000  
H 14.1980000   22.9990000   21.5330000  
H 14.0160000   24.5520000   20.2600000  
H 13.9430000   26.2660000   24.2770000  
H 13.5490000   21.6440000   28.0330000  
H 14.1160000   19.6960000   25.4910000  
H 13.7670000   24.8640000   26.6310000  
