76
000 
C 16.5310000   24.8380000   20.2910000  
C 15.6330000   25.5430000   21.1410000  
C 14.7950000   24.8920000   21.9860000  
C 14.7030000   23.5030000   21.9940000  
C 15.6100000   22.7110000   21.2390000  
C 16.4480000   23.3410000   20.3380000  
C 13.8220000   25.3990000   22.9010000  
C 13.1630000   24.3020000   23.4240000  
N 13.7850000   23.1570000   22.9870000  
O 11.5570000   25.5720000   24.5370000  
C 12.0220000   24.3470000   24.3390000  
O 11.4830000   23.3790000   24.8140000  
O 17.1540000   22.6190000   19.4150000  
O 17.2400000   25.3940000   19.4840000  
H 15.6420000   26.6870000   21.1390000  
H 13.6070000   26.4380000   22.9700000  
H 12.0750000   26.3040000   24.1620000  
H 16.8250000   21.7140000   19.5340000  
C 15.5150000   21.2230000   21.4190000  
C 15.1740000   20.4670000   20.3170000  
C 15.1570000   19.0830000   20.3760000  
C 15.6470000   18.3900000   21.5060000  
C 16.1360000   19.1870000   22.6300000  
C 16.0540000   20.5860000   22.5570000  
C 14.5310000   20.7990000   19.0820000  
C 13.9300000   19.6400000   18.5350000  
N 14.4340000   18.5360000   19.2930000  
O 12.6230000   20.7700000   16.9190000  
C 13.0340000   19.5800000   17.2930000  
O 12.6360000   18.5380000   16.8090000  
O 16.5370000   18.5280000   23.7370000  
O 16.6380000   21.1960000   23.5940000  
H 14.3880000   21.8600000   18.9120000  
H 13.1050000   21.3810000   17.5880000  
H 13.9730000   17.6470000   19.2580000  
H 16.6840000   17.5720000   23.5530000  
H 16.7120000   20.5870000   24.3290000  
C 15.6190000   16.9320000   21.4700000  
C 16.7690000   16.2320000   21.0840000  
C 16.8080000   14.8780000   21.0400000  
C 15.8070000   14.0070000   21.4370000  
C 14.6340000   14.6840000   21.8560000  
C 14.5020000   16.0910000   21.8380000  
C 18.0880000   16.7180000   20.6830000  
C 18.8300000   15.5000000   20.5040000  
N 18.0330000   14.4080000   20.6500000  
O 20.7740000   16.7440000   20.3080000  
C 20.2640000   15.4900000   20.2630000  
O 20.9690000   14.5410000   19.9930000  
O 13.5490000   14.0080000   22.1610000  
O 13.2820000   16.7160000   22.1300000  
H 18.4040000   17.7370000   20.5300000  
H 20.0440000   17.3570000   20.4750000  
H 18.3700000   13.4800000   20.7500000  
H 13.7780000   13.0640000   22.1550000  
H 12.6510000   16.0690000   22.5800000  
C 15.9210000   12.5270000   21.5690000  
C 16.1530000   11.9880000   22.8880000  
C 16.1910000   10.6330000   23.1310000  
C 15.9650000    9.6930000   22.1510000  
C 15.7130000   10.1850000   20.8000000  
C 15.6900000   11.5800000   20.5440000  
C 16.1540000   12.5930000   24.2170000  
C 16.2440000   11.5920000   25.1380000  
N 16.4260000   10.3490000   24.4420000  
O 16.4520000   13.0590000   26.9800000  
C 16.4170000   11.7550000   26.5740000  
O 16.4980000   10.8020000   27.3510000  
O 15.4160000    9.2570000   19.7880000  
O 15.5370000   12.0690000   19.3590000  
H 16.1400000   13.6960000   24.3530000  
H 16.5360000   13.6170000   26.2140000  
H 16.5030000    9.4280000   24.8520000  
H 15.1700000    9.8020000   19.0580000  
H 15.7270000   13.0570000   19.4960000  
H 15.9340000    8.6890000   22.4060000  
