76
000 
C 16.9980000   24.7020000   21.9480000  
C 15.8980000   25.5230000   22.6140000  
C 14.8150000   24.8270000   23.2070000  
C 14.5700000   23.4830000   23.0100000  
C 15.5570000   22.6480000   22.4340000  
C 16.7030000   23.2350000   21.8840000  
C 13.7830000   25.2630000   24.0140000  
C 12.9190000   24.1850000   24.2440000  
N 13.5720000   23.0320000   23.7170000  
O 11.3610000   25.5540000   25.4030000  
C 11.7270000   24.2970000   25.1030000  
O 11.0340000   23.3520000   25.4250000  
O 17.6610000   22.5880000   21.2150000  
O 17.9920000   25.2170000   21.4300000  
H 16.1010000   26.5190000   22.8040000  
H 13.6780000   26.2520000   24.3400000  
H 12.0620000   26.1250000   25.0070000  
H 17.5800000   21.6750000   21.5580000  
C 15.3530000   21.2050000   22.3000000  
C 14.7590000   20.6720000   21.1380000  
C 14.6210000   19.3270000   21.0010000  
C 15.0220000   18.3750000   21.9700000  
C 15.4810000   18.9600000   23.1870000  
C 15.5830000   20.3320000   23.3720000  
C 14.4810000   21.2160000   19.8050000  
C 14.1280000   20.2020000   19.0180000  
N 14.2710000   18.9880000   19.7130000  
O 13.8730000   21.4000000   17.0440000  
C 13.4810000   20.2330000   17.7250000  
O 12.7350000   19.4120000   17.1490000  
O 15.8230000   18.1480000   24.2220000  
O 15.9370000   20.8220000   24.6260000  
H 14.4710000   22.3300000   19.5310000  
H 14.4220000   21.9230000   17.6860000  
H 13.8800000   18.0590000   19.4290000  
H 15.7220000   17.2300000   23.9310000  
H 15.9660000   20.0150000   25.1910000  
C 15.1570000   16.9620000   21.6580000  
C 16.3960000   16.3600000   21.3960000  
C 16.4860000   15.0220000   21.0890000  
C 15.4000000   14.1560000   21.0830000  
C 14.1500000   14.7170000   21.3560000  
C 13.9980000   16.1190000   21.6730000  
C 17.7640000   16.8410000   21.4300000  
C 18.5800000   15.7360000   21.1100000  
N 17.7660000   14.5990000   20.8020000  
O 20.6130000   17.0240000   21.0680000  
C 20.0400000   15.8120000   20.9030000  
O 20.7350000   14.7830000   20.5900000  
O 13.0240000   13.8780000   21.4620000  
O 12.7590000   16.5710000   21.8890000  
H 18.0480000   17.8910000   21.6120000  
H 19.8800000   17.6650000   21.1930000  
H 18.0970000   13.6890000   20.4510000  
H 13.1580000   12.9850000   21.1650000  
H 12.1240000   15.9580000   21.6180000  
C 15.5750000   12.7190000   20.6280000  
C 16.3130000   11.7850000   21.3730000  
C 16.6890000   10.5410000   20.8880000  
C 16.2100000   10.0560000   19.6440000  
C 15.3970000   10.9240000   18.9530000  
C 15.1080000   12.2430000   19.3490000  
C 16.9680000   11.9430000   22.6270000  
C 17.5620000   10.6910000   22.9100000  
N 17.4560000    9.8560000   21.8050000  
O 18.2220000   11.2460000   25.1670000  
C 18.2090000   10.3140000   24.1750000  
O 18.5920000    9.2000000   24.2810000  
O 14.7600000   10.4230000   17.8540000  
O 14.1930000   12.9990000   18.6620000  
H 17.0890000   12.8230000   23.3210000  
H 17.9270000   12.1150000   24.8110000  
H 17.8240000    8.9400000   21.6770000  
H 14.2790000   11.2250000   17.5180000  
H 14.1520000   13.8480000   19.0860000  
H 16.4000000    9.0780000   19.3760000  
