76
000 
C 16.7160000   23.8560000   25.6290000  
C 15.3460000   24.3880000   25.9480000  
C 14.2390000   23.6740000   25.6700000  
C 14.3050000   22.4890000   24.9640000  
C 15.5500000   21.9900000   24.4280000  
C 16.7340000   22.6600000   24.7610000  
C 12.9590000   23.8910000   26.0550000  
C 12.2550000   22.9550000   25.2900000  
N 13.0910000   22.1040000   24.6190000  
O 10.1390000   23.6790000   26.1240000  
C 10.7360000   22.7750000   25.3130000  
O 10.0570000   21.9780000   24.7050000  
O 17.9340000   22.2110000   24.3810000  
O 17.7390000   24.3530000   26.1030000  
H 15.2860000   25.2910000   26.5960000  
H 12.6600000   24.6890000   26.7090000  
H 10.8760000   23.9650000   26.5700000  
H 17.6640000   21.6450000   23.6510000  
C 15.5540000   20.7580000   23.6480000  
C 15.5820000   20.8330000   22.2970000  
C 15.6570000   19.6720000   21.5080000  
C 15.8030000   18.3250000   22.0610000  
C 15.7240000   18.2840000   23.4600000  
C 15.5850000   19.4360000   24.2290000  
C 15.6930000   22.0000000   21.3700000  
C 15.7210000   21.4510000   20.0780000  
N 15.6990000   20.0390000   20.1840000  
O 15.9790000   23.5430000   18.9020000  
C 15.9330000   22.1660000   18.8310000  
O 16.1220000   21.5680000   17.7710000  
O 15.8210000   17.0790000   24.1580000  
O 15.5830000   19.2150000   25.5740000  
H 15.7200000   23.0470000   21.6040000  
H 16.0530000   23.6090000   19.8500000  
H 15.6430000   19.3580000   19.4490000  
H 15.9150000   16.3660000   23.5450000  
H 15.5410000   18.2680000   25.6540000  
C 16.0010000   17.1030000   21.2670000  
C 17.1120000   16.2160000   21.4440000  
C 17.1210000   15.0530000   20.7190000  
C 16.1790000   14.6050000   19.7960000  
C 15.0750000   15.4670000   19.6320000  
C 14.9500000   16.6480000   20.3730000  
C 18.4260000   16.4290000   22.0650000  
C 19.2180000   15.3570000   21.5870000  
N 18.3950000   14.4410000   20.8000000  
O 21.1130000   16.0700000   22.7580000  
C 20.5770000   15.0450000   22.0530000  
O 21.1330000   13.9880000   21.8310000  
O 14.2940000   15.2500000   18.5100000  
O 13.8040000   17.3900000   20.1200000  
H 18.7230000   17.3050000   22.5420000  
H 20.4180000   16.7630000   22.7370000  
H 18.5850000   13.5980000   20.2920000  
H 14.7900000   14.6960000   17.8690000  
H 13.3370000   17.0590000   19.3230000  
C 16.2950000   13.3570000   18.9940000  
C 15.3870000   12.3250000   19.2540000  
C 15.3610000   11.1650000   18.4960000  
C 16.2710000   10.9840000   17.4710000  
C 17.3040000   12.0020000   17.2190000  
C 17.2860000   13.2370000   17.9620000  
C 14.2500000   12.2960000   20.1050000  
C 13.6280000   11.0760000   19.8290000  
N 14.2840000   10.3960000   18.7700000  
O 11.7230000   11.2810000   21.2620000  
C 12.4200000   10.4870000   20.3770000  
O 12.0700000    9.3350000   20.1630000  
O 18.2910000   11.7160000   16.3120000  
O 18.0290000   14.2810000   17.5310000  
H 13.8530000   13.1070000   20.7470000  
H 12.2050000   12.1080000   21.2280000  
H 13.9300000    9.5880000   18.2770000  
H 18.6660000   12.5950000   16.0850000  
H 17.8450000   15.0740000   18.0980000  
H 16.3830000   10.1280000   16.8120000  
