76
000 
C 17.4880000   15.5580000   14.5550000  
C 16.6160000   14.3620000   14.3120000  
C 15.6870000   13.9160000   15.2270000  
C 15.5110000   14.5770000   16.4420000  
C 16.2610000   15.7890000   16.7900000  
C 17.2290000   16.2180000   15.8930000  
C 15.0200000   12.6830000   15.3820000  
C 14.3700000   12.7530000   16.5780000  
N 14.7120000   13.9220000   17.2350000  
O 13.2960000   10.5930000   16.4020000  
C 13.4730000   11.7300000   17.1220000  
O 12.9550000   11.8430000   18.2060000  
O 17.9550000   17.3280000   16.1930000  
O 18.3060000   15.9700000   13.7880000  
H 16.7860000   13.8090000   13.4300000  
H 15.0620000   11.7080000   14.8580000  
H 14.0200000   10.7150000   15.7060000  
H 17.5770000   17.6930000   16.9840000  
C 15.9820000   16.4590000   18.0230000  
C 16.5010000   15.9670000   19.2220000  
C 16.2880000   16.5720000   20.4590000  
C 15.4240000   17.6380000   20.6640000  
C 14.8700000   18.1810000   19.4820000  
C 15.2030000   17.6060000   18.2050000  
C 17.3740000   14.8270000   19.4120000  
C 17.6260000   14.7720000   20.7830000  
N 17.0440000   15.8960000   21.4380000  
O 18.5250000   12.5580000   20.7040000  
C 18.2910000   13.6360000   21.5020000  
O 18.4730000   13.6020000   22.6860000  
O 14.0810000   19.3260000   19.6770000  
O 14.7140000   18.2600000   17.1490000  
H 17.7390000   14.1040000   18.6770000  
H 18.0690000   12.6050000   19.8880000  
H 17.0060000   16.1500000   22.3940000  
H 13.7770000   19.3780000   20.5540000  
H 14.1700000   18.9710000   17.4270000  
C 15.1890000   18.1480000   21.9740000  
C 16.1790000   18.7970000   22.7480000  
C 15.8930000   19.2740000   24.0070000  
C 14.6830000   19.1730000   24.6440000  
C 13.6570000   18.4160000   23.9430000  
C 13.9590000   17.8640000   22.6570000  
C 17.5350000   19.1560000   22.5150000  
C 17.9340000   19.9530000   23.5810000  
N 16.9130000   20.0440000   24.5410000  
O 20.0870000   20.3370000   22.5890000  
C 19.3500000   20.4540000   23.7560000  
O 19.8030000   21.0070000   24.7660000  
O 12.3980000   18.3480000   24.5440000  
O 13.0230000   17.1310000   22.0160000  
H 18.2340000   18.6990000   21.7090000  
H 19.4210000   19.8890000   22.0490000  
H 16.8810000   20.5920000   25.4310000  
H 12.5790000   18.7340000   25.3890000  
H 12.1610000   17.0510000   22.5390000  
C 14.5170000   19.6340000   26.0770000  
C 14.2370000   20.9890000   26.4080000  
C 14.1710000   21.2560000   27.7680000  
C 14.4930000   20.4300000   28.8350000  
C 14.8180000   19.1120000   28.4290000  
C 14.8280000   18.7000000   27.0980000  
C 13.9010000   22.2000000   25.7040000  
C 13.6400000   23.1440000   26.6570000  
N 13.8790000   22.6050000   27.9180000  
O 12.9810000   24.8520000   25.2010000  
C 13.2530000   24.5500000   26.4690000  
O 13.2300000   25.3830000   27.3550000  
O 15.1360000   18.2700000   29.4720000  
O 15.3630000   17.3840000   26.8830000  
H 14.0430000   22.3700000   24.6580000  
H 12.9190000   23.9630000   24.8210000  
H 13.6400000   23.0200000   28.8600000  
H 15.1310000   17.3890000   29.1340000  
H 15.4620000   17.2090000   25.9860000  
H 14.3780000   20.8410000   29.8650000  
