76
000 
C 16.5100000   17.5250000   29.1690000  
C 15.8700000   18.7150000   29.6870000  
C 15.1670000   19.5840000   28.8540000  
C 14.9440000   19.3480000   27.4700000  
C 15.5920000   18.2110000   26.8290000  
C 16.2880000   17.3270000   27.6340000  
C 14.3130000   20.7650000   29.1410000  
C 13.8870000   21.1460000   27.9180000  
N 14.1970000   20.2820000   26.9010000  
O 12.7560000   22.9730000   28.8740000  
C 13.0910000   22.3480000   27.7030000  
O 12.7090000   22.6910000   26.6100000  
O 16.9850000   16.2640000   27.1300000  
O 17.1790000   16.7750000   29.8840000  
H 16.0150000   18.8460000   30.7190000  
H 14.1630000   21.1820000   30.0860000  
H 13.3280000   22.6510000   29.5830000  
H 16.9530000   16.4770000   26.1370000  
C 15.3960000   17.9200000   25.4060000  
C 15.8440000   18.8690000   24.4690000  
C 15.8090000   18.6410000   23.0940000  
C 15.3090000   17.5130000   22.5030000  
C 14.9000000   16.5310000   23.4290000  
C 14.9050000   16.7380000   24.8540000  
C 16.5410000   20.1800000   24.6790000  
C 16.6590000   20.6930000   23.3290000  
N 16.1710000   19.8010000   22.4190000  
O 17.6150000   22.7850000   23.8870000  
C 17.1690000   22.0190000   22.8770000  
O 17.0790000   22.4110000   21.7160000  
O 14.3860000   15.3810000   22.8500000  
O 14.5150000   15.7570000   25.7200000  
H 16.8070000   20.6810000   25.5840000  
H 17.2490000   22.3010000   24.6550000  
H 16.0650000   19.9930000   21.4330000  
H 14.3690000   15.4670000   21.8840000  
H 14.2210000   14.9980000   25.1720000  
C 15.1790000   17.3690000   21.0080000  
C 16.3480000   17.2930000   20.1750000  
C 16.2340000   17.1150000   18.8360000  
C 15.0280000   17.0240000   18.2120000  
C 13.8790000   17.2040000   18.9790000  
C 13.9190000   17.3820000   20.3900000  
C 17.7230000   17.1890000   20.5000000  
C 18.4280000   17.0520000   19.2440000  
N 17.4580000   17.0430000   18.2030000  
O 20.5870000   17.1880000   20.0840000  
C 19.8530000   16.9260000   19.0400000  
O 20.3820000   16.6940000   17.9490000  
O 12.6220000   17.0650000   18.3610000  
O 12.8230000   17.5330000   21.1290000  
H 18.1870000   17.1530000   21.4910000  
H 20.0100000   17.5730000   20.7020000  
H 17.6720000   17.0250000   17.2220000  
H 12.6210000   17.3470000   17.4050000  
H 12.0880000   17.1740000   20.6130000  
C 14.9050000   16.6680000   16.7250000  
C 15.0680000   15.3470000   16.2800000  
C 14.7560000   14.9700000   14.9890000  
C 14.4430000   15.9160000   14.0250000  
C 14.3060000   17.2470000   14.4200000  
C 14.4470000   17.6410000   15.7740000  
C 15.4270000   14.1420000   16.9210000  
C 15.5650000   13.1030000   15.9660000  
N 15.0460000   13.5730000   14.7990000  
O 16.5830000   11.4660000   17.3790000  
C 16.2940000   11.8300000   16.0940000  
O 16.4710000   11.1430000   15.0890000  
O 14.1490000   18.1010000   13.4650000  
O 14.2720000   18.9470000   16.1070000  
H 15.7840000   14.1040000   17.9610000  
H 16.5820000   12.3090000   17.9240000  
H 14.7830000   13.1570000   13.9480000  
H 13.8620000   18.9290000   13.8690000  
H 14.2390000   18.9370000   17.0560000  
H 14.4360000   15.6740000   13.0010000  
