76
000 
C 17.3770000   17.5820000   14.2040000  
C 16.1610000   16.9970000   13.5540000  
C 15.1210000   16.6010000   14.4260000  
C 15.1460000   16.7330000   15.8140000  
C 16.2630000   17.4090000   16.4530000  
C 17.3300000   17.7740000   15.6990000  
C 13.9100000   15.8430000   14.1160000  
C 13.3150000   15.6590000   15.3630000  
N 14.1060000   16.1350000   16.3790000  
O 11.2710000   14.5880000   14.5920000  
C 11.9590000   14.9550000   15.6620000  
O 11.5480000   14.6630000   16.7620000  
O 18.4610000   18.2450000   16.2100000  
O 18.3720000   17.8590000   13.5630000  
H 16.1930000   16.7280000   12.4240000  
H 13.5700000   15.4180000   13.1640000  
H 11.9240000   14.7970000   13.8920000  
H 18.4890000   18.2050000   17.2300000  
C 16.2490000   17.7010000   17.8940000  
C 16.8850000   16.8700000   18.8260000  
C 16.4510000   16.7730000   20.1500000  
C 15.5450000   17.6560000   20.7790000  
C 14.9920000   18.6180000   19.8840000  
C 15.2610000   18.5990000   18.4560000  
C 17.9720000   15.8460000   18.7030000  
C 18.1350000   15.3260000   19.9900000  
N 17.1960000   15.8760000   20.8560000  
O 19.7860000   13.6880000   19.3380000  
C 19.1480000   14.3320000   20.4070000  
O 19.4090000   14.0480000   21.5900000  
O 14.1370000   19.6270000   20.3370000  
O 14.6710000   19.3800000   17.5410000  
H 18.5530000   15.6250000   17.8770000  
H 19.2030000   13.8960000   18.5630000  
H 17.0000000   15.5330000   21.8210000  
H 14.3490000   19.8190000   21.2350000  
H 14.2870000   20.2390000   17.9950000  
C 15.3740000   17.7330000   22.2730000  
C 16.4560000   18.0990000   23.1080000  
C 16.3400000   18.1120000   24.4680000  
C 15.1480000   17.9360000   25.2310000  
C 14.0230000   17.5840000   24.4090000  
C 14.1210000   17.5060000   22.9610000  
C 17.8420000   18.3580000   22.8190000  
C 18.4940000   18.6560000   24.0270000  
N 17.4700000   18.6150000   25.0550000  
O 20.4510000   19.3970000   22.9910000  
C 19.8440000   19.1640000   24.1840000  
O 20.3470000   19.4610000   25.2500000  
O 12.8040000   17.5200000   25.0260000  
O 12.9630000   17.2960000   22.1980000  
H 18.3870000   18.3740000   21.8860000  
H 19.9110000   19.1620000   22.1960000  
H 17.5330000   18.9420000   26.0040000  
H 12.9030000   17.8220000   25.9620000  
H 12.3870000   16.6610000   22.6820000  
C 15.1130000   18.0660000   26.7090000  
C 14.2520000   19.0190000   27.2840000  
C 14.1210000   19.1080000   28.6330000  
C 14.8230000   18.3320000   29.5670000  
C 15.5570000   17.2580000   28.9810000  
C 15.7500000   17.1070000   27.5460000  
C 13.4230000   19.9680000   26.6510000  
C 12.7540000   20.6760000   27.6260000  
N 13.1830000   20.1570000   28.8810000  
O 11.6420000   22.1580000   26.1880000  
C 11.8650000   21.7850000   27.4720000  
O 11.3340000   22.3650000   28.3850000  
O 16.1430000   16.3620000   29.8310000  
O 16.5510000   16.1110000   27.0670000  
H 13.3810000   20.1730000   25.5050000  
H 12.3340000   21.7250000   25.6770000  
H 13.1040000   20.6400000   29.7380000  
H 16.7780000   15.8850000   29.3300000  
H 16.5650000   16.2330000   26.1460000  
H 14.7100000   18.3570000   30.6250000  
