76
000 
C 16.6910000   22.0370000   27.6260000  
C 15.5500000   23.0200000   27.7180000  
C 14.4230000   22.8020000   27.0020000  
C 14.3210000   21.7490000   26.0720000  
C 15.4800000   20.9610000   25.7490000  
C 16.6160000   21.0100000   26.5160000  
C 13.1410000   23.3070000   27.1710000  
C 12.4140000   22.6790000   26.0920000  
N 13.1460000   21.7110000   25.4220000  
O 10.4560000   24.0850000   26.2770000  
C 11.0020000   23.0000000   25.6980000  
O 10.4130000   22.3180000   24.8200000  
O 17.8030000   20.4100000   26.4550000  
O 17.5360000   22.0670000   28.4840000  
H 15.5600000   23.7080000   28.6170000  
H 12.7360000   24.0040000   27.8750000  
H 10.8800000   24.1420000   27.1020000  
H 17.8110000   19.8180000   25.7250000  
C 15.4160000   20.0220000   24.6760000  
C 16.0860000   20.2850000   23.4740000  
C 16.0890000   19.4110000   22.4500000  
C 15.4170000   18.1370000   22.4000000  
C 14.7890000   17.8680000   23.6490000  
C 14.7520000   18.7520000   24.7790000  
C 16.8310000   21.4550000   22.9940000  
C 17.3290000   21.0780000   21.7750000  
N 16.7480000   19.8980000   21.3960000  
O 18.6440000   23.0350000   21.4250000  
C 18.1990000   21.8970000   20.9220000  
O 18.5450000   21.5480000   19.8320000  
O 14.1530000   16.6290000   23.7890000  
O 14.1340000   18.2800000   25.8530000  
H 17.0160000   22.4410000   23.4800000  
H 18.4630000   22.9880000   22.3700000  
H 16.9250000   19.3930000   20.5270000  
H 14.3640000   16.1640000   22.9590000  
H 13.8290000   17.4010000   25.5520000  
C 15.3470000   17.1560000   21.2040000  
C 16.4940000   16.7580000   20.5360000  
C 16.5310000   15.8850000   19.4790000  
C 15.4020000   15.3620000   18.8600000  
C 14.1380000   15.7660000   19.4670000  
C 14.1640000   16.6250000   20.6070000  
C 17.9350000   17.0210000   20.7980000  
C 18.6600000   16.3130000   19.8300000  
N 17.7730000   15.5410000   19.0510000  
O 20.8920000   17.0300000   20.4060000  
C 20.0900000   16.3140000   19.5170000  
O 20.5900000   15.7500000   18.5850000  
O 12.9360000   15.3480000   18.9170000  
O 12.9750000   16.9980000   21.0760000  
H 18.2830000   17.7440000   21.5430000  
H 20.1500000   17.4760000   20.9170000  
H 17.8590000   14.8080000   18.3960000  
H 13.0530000   15.0510000   18.0060000  
H 12.2380000   16.6260000   20.5350000  
C 15.5250000   14.3800000   17.7510000  
C 15.0870000   13.0630000   17.9530000  
C 15.2530000   12.1530000   16.9490000  
C 15.9270000   12.4090000   15.7510000  
C 16.2750000   13.7100000   15.5270000  
C 16.1190000   14.7070000   16.5030000  
C 14.6120000   12.3650000   19.1550000  
C 14.5530000   11.0110000   18.7880000  
N 14.7550000   10.9160000   17.3930000  
O 14.0980000   10.0550000   20.9790000  
C 14.2650000    9.7970000   19.6360000  
O 14.1860000    8.6460000   19.1560000  
O 16.8890000   13.9510000   14.3200000  
O 16.4170000   15.9620000   16.1140000  
H 14.5150000   12.7910000   20.2430000  
H 14.3240000   11.0060000   21.1640000  
H 14.8790000   10.0290000   16.9370000  
H 16.9950000   14.8990000   14.1870000  
H 15.8490000   16.4220000   16.7140000  
H 15.9900000   11.6200000   15.0400000  
