76
000 
C 18.6840000   11.2070000   24.0490000  
C 17.9000000   10.7520000   25.2970000  
C 16.7670000   11.4570000   25.6720000  
C 16.2830000   12.6090000   25.0410000  
C 16.9670000   13.0860000   23.8510000  
C 18.0990000   12.4170000   23.3880000  
C 15.8500000   11.0950000   26.6440000  
C 14.8710000   12.0580000   26.5460000  
N 15.1660000   13.0630000   25.5600000  
O 13.8140000   11.1210000   28.5280000  
C 13.8960000   12.1940000   27.6340000  
O 13.0950000   13.1210000   27.5950000  
O 18.8540000   12.7600000   22.3490000  
O 19.5830000   10.5490000   23.5110000  
H 18.2840000    9.8160000   25.6730000  
H 15.9820000   10.3290000   27.4040000  
H 14.2690000   10.4050000   28.0380000  
H 18.2490000   13.0510000   21.6640000  
C 16.5060000   14.2960000   23.2180000  
C 16.6350000   15.5480000   23.7620000  
C 16.4340000   16.6770000   22.9950000  
C 15.8610000   16.7660000   21.6770000  
C 15.7140000   15.5020000   21.0870000  
C 16.0520000   14.2760000   21.8720000  
C 16.8760000   16.0580000   25.0850000  
C 16.8730000   17.4290000   25.0230000  
N 16.5310000   17.8020000   23.7270000  
O 17.2920000   17.7030000   27.3830000  
C 17.1140000   18.2980000   26.1640000  
O 17.1000000   19.5010000   26.1530000  
O 15.3270000   15.3700000   19.7630000  
O 15.9090000   13.1200000   21.1250000  
H 17.0120000   15.4310000   25.9430000  
H 17.4200000   16.7840000   27.1140000  
H 16.2350000   18.7200000   23.4650000  
H 15.1250000   16.1890000   19.2690000  
H 15.7910000   13.3880000   20.1840000  
C 15.4050000   18.0700000   20.9850000  
C 16.3080000   19.1560000   20.7300000  
C 15.8150000   20.3190000   20.2140000  
C 14.4110000   20.6140000   19.9150000  
C 13.5310000   19.5000000   20.0590000  
C 14.0180000   18.2380000   20.5820000  
C 17.7720000   19.2950000   20.8230000  
C 18.0370000   20.5970000   20.4490000  
N 16.8790000   21.2190000   20.1600000  
O 20.4890000   20.5450000   20.9030000  
C 19.4310000   21.2730000   20.4230000  
O 19.5050000   22.4150000   20.0080000  
O 12.2440000   19.5510000   19.6890000  
O 13.1280000   17.2180000   20.8060000  
H 18.4130000   18.5220000   21.1700000  
H 20.1040000   19.6930000   21.2310000  
H 16.8850000   22.1840000   19.7950000  
H 12.0950000   20.4850000   19.4710000  
H 12.2390000   17.6780000   20.7020000  
C 13.9970000   21.8640000   19.2940000  
C 13.6980000   21.8960000   17.8940000  
C 13.1120000   23.0070000   17.3700000  
C 12.8820000   24.2250000   18.1010000  
C 13.3250000   24.1880000   19.4290000  
C 13.8580000   23.0180000   20.0370000  
C 13.8230000   20.9660000   16.7770000  
C 13.2520000   21.5600000   15.6720000  
N 12.7400000   22.8070000   16.1110000  
O 13.6940000   19.8550000   14.0220000  
C 13.1810000   21.0850000   14.2370000  
O 12.5820000   21.7560000   13.4280000  
O 13.2060000   25.2900000   20.1960000  
O 14.2690000   22.9350000   21.2830000  
H 14.3230000   19.9260000   16.9140000  
H 13.9590000   19.6020000   14.9350000  
H 12.3200000   23.4790000   15.4760000  
H 13.5680000   25.0730000   21.0740000  
H 14.0700000   21.9980000   21.4720000  
H 12.3990000   25.0680000   17.6260000  
