76
000 
C 13.9930000   19.8400000   14.9240000  
C 14.9530000   19.3020000   13.9690000  
C 15.8420000   18.3440000   14.3360000  
C 15.9540000   17.8260000   15.6420000  
C 14.9630000   18.2020000   16.6110000  
C 14.0560000   19.2010000   16.3100000  
C 16.8010000   17.6640000   13.5660000  
C 17.3300000   16.7410000   14.4330000  
N 16.7590000   16.7910000   15.7020000  
O 18.8200000   15.9810000   12.7820000  
C 18.3940000   15.7330000   14.0350000  
O 18.8400000   14.7930000   14.5820000  
O 13.2090000   19.7980000   17.1900000  
O 13.2030000   20.6600000   14.6080000  
H 14.9150000   19.7550000   12.9330000  
H 17.0400000   17.9140000   12.5410000  
H 18.2920000   16.7390000   12.4650000  
H 13.2330000   19.2460000   18.0240000  
C 15.0760000   17.7350000   18.0200000  
C 16.2810000   17.9360000   18.7550000  
C 16.3140000   17.7620000   20.0910000  
C 15.3190000   17.2320000   20.8720000  
C 14.1210000   16.8180000   20.0770000  
C 14.0480000   17.0840000   18.6920000  
C 17.4980000   18.6700000   18.3990000  
C 18.0860000   19.0280000   19.6620000  
N 17.3930000   18.3480000   20.6920000  
O 19.9730000   20.2060000   18.7100000  
C 19.3290000   19.7970000   19.8600000  
O 19.7200000   20.0800000   20.9520000  
O 13.1250000   16.1510000   20.7380000  
O 12.9520000   16.6510000   17.9940000  
H 17.9330000   18.9290000   17.3960000  
H 19.5640000   19.8360000   17.9350000  
H 17.5300000   18.4650000   21.7550000  
H 13.5260000   15.6950000   21.5660000  
H 12.3210000   16.2800000   18.6910000  
C 15.4160000   17.0800000   22.3360000  
C 15.5070000   18.1550000   23.1790000  
C 15.5660000   17.9420000   24.4850000  
C 15.6490000   16.6920000   25.1260000  
C 15.5290000   15.5770000   24.2240000  
C 15.4560000   15.7490000   22.8430000  
C 15.5080000   19.5790000   22.9590000  
C 15.5070000   20.1460000   24.3020000  
N 15.6420000   19.1060000   25.2250000  
O 15.3140000   22.4420000   23.6640000  
C 15.4320000   21.5960000   24.7120000  
O 15.5180000   21.8900000   25.8580000  
O 15.6780000   14.3560000   24.7570000  
O 15.3090000   14.5780000   22.0920000  
H 15.3510000   20.2070000   22.0140000  
H 15.2340000   21.9070000   22.8880000  
H 15.8990000   19.2410000   26.2170000  
H 15.6730000   14.5440000   25.7390000  
H 15.1920000   13.8380000   22.7130000  
C 15.8320000   16.4870000   26.5690000  
C 14.7240000   16.4230000   27.4760000  
C 14.9090000   16.3170000   28.8080000  
C 16.1830000   16.2350000   29.3280000  
C 17.3050000   16.2470000   28.4960000  
C 17.0840000   16.2630000   27.0920000  
C 13.3030000   16.5950000   27.2540000  
C 12.6720000   16.5370000   28.4920000  
N 13.7170000   16.4090000   29.4700000  
O 10.4780000   17.0610000   27.6740000  
C 11.1950000   16.6140000   28.6840000  
O 10.6080000   16.3200000   29.7260000  
O 18.5830000   16.2820000   29.0410000  
O 18.1670000   16.2560000   26.3000000  
H 12.7630000   16.5540000   26.2790000  
H 11.1470000   17.1350000   27.0060000  
H 13.6300000   16.4250000   30.4700000  
H 19.2620000   16.1390000   28.3680000  
H 17.7680000   16.2900000   25.4410000  
H 16.3320000   16.2780000   30.3700000  
