76
000 
C 15.0160000   10.1450000   20.0540000  
C 16.3730000    9.6750000   20.2960000  
C 17.3510000   10.5300000   20.7380000  
C 17.1610000   11.9020000   20.9310000  
C 15.8410000   12.4920000   20.8430000  
C 14.8520000   11.5870000   20.4460000  
C 18.7240000   10.3300000   20.9450000  
C 19.2350000   11.5060000   21.5140000  
N 18.2680000   12.5410000   21.4190000  
O 21.4980000   10.6360000   21.8510000  
C 20.6650000   11.6690000   21.8960000  
O 21.0320000   12.7780000   22.2570000  
O 13.5690000   12.0320000   20.1740000  
O 14.1510000    9.4130000   19.5330000  
H 16.6220000    8.6250000   20.1320000  
H 19.2500000    9.3410000   20.8060000  
H 20.8900000   10.0050000   21.5000000  
H 13.4900000   12.9370000   20.5010000  
C 15.5560000   13.8370000   21.1940000  
C 16.0130000   14.9050000   20.4010000  
C 15.8510000   16.1930000   20.8110000  
C 15.1930000   16.6550000   21.9290000  
C 14.7160000   15.5700000   22.7350000  
C 14.9360000   14.1780000   22.3770000  
C 16.9410000   14.8210000   19.3400000  
C 17.3080000   16.1260000   19.1660000  
N 16.6230000   16.9910000   20.0520000  
O 19.0470000   15.7750000   17.6340000  
C 18.2980000   16.6840000   18.2610000  
O 18.4770000   17.8950000   18.1810000  
O 14.0830000   15.8940000   23.8630000  
O 14.3820000   13.2730000   23.1920000  
H 17.3610000   13.9240000   18.9640000  
H 18.9030000   14.9870000   18.1200000  
H 16.6080000   17.9720000   20.0210000  
H 14.1550000   16.8790000   23.8990000  
H 14.4250000   13.5360000   24.1150000  
C 15.1680000   18.1430000   22.2830000  
C 14.7730000   19.1510000   21.3500000  
C 14.6710000   20.4580000   21.7150000  
C 15.2500000   20.9330000   22.9360000  
C 15.7700000   19.9880000   23.8110000  
C 15.5760000   18.6340000   23.5740000  
C 14.2160000   19.0140000   20.0180000  
C 13.7490000   20.2720000   19.6510000  
N 14.0740000   21.1580000   20.6550000  
O 12.8500000   19.4530000   17.5050000  
C 13.1250000   20.5100000   18.3150000  
O 12.8190000   21.6510000   17.9980000  
O 16.3100000   20.3920000   25.0130000  
O 16.0930000   17.8270000   24.5670000  
H 14.3490000   18.1460000   19.3510000  
H 13.1930000   18.6760000   17.9400000  
H 13.9840000   22.2150000   20.5700000  
H 16.4590000   21.3330000   24.8040000  
H 16.2060000   18.4490000   25.3100000  
C 15.4480000   22.4130000   23.1310000  
C 14.2960000   23.2120000   23.3790000  
C 14.4130000   24.5310000   23.6690000  
C 15.6010000   25.1350000   23.7270000  
C 16.7940000   24.4590000   23.4470000  
C 16.6840000   23.0970000   23.1610000  
C 12.8700000   22.8780000   23.5060000  
C 12.2270000   24.0160000   23.9610000  
N 13.1870000   25.0490000   24.0490000  
O 10.0500000   23.0540000   24.0920000  
C 10.8090000   24.1250000   24.2200000  
O 10.2770000   25.1360000   24.6930000  
O 17.9590000   25.1050000   23.7670000  
O 17.7850000   22.2720000   23.0190000  
H 12.3820000   21.9180000   23.3100000  
H 10.5690000   22.2920000   23.7070000  
H 13.0440000   26.0020000   24.4110000  
H 18.6340000   24.4150000   23.5050000  
H 17.3180000   21.5150000   22.6280000  
H 15.6100000   26.1840000   23.9110000  
