76
000 
C 18.6290000   11.8260000   24.7900000  
C 19.1090000   10.7770000   23.8550000  
C 19.0160000   10.9980000   22.4940000  
C 18.5300000   12.1910000   21.9180000  
C 17.9350000   13.1950000   22.7680000  
C 18.1070000   13.0590000   24.1660000  
C 19.3190000   10.1470000   21.3740000  
C 18.9630000   10.8410000   20.2600000  
N 18.5160000   12.1200000   20.5510000  
O 19.7030000    9.1310000   18.7760000  
C 19.1480000   10.3200000   18.8490000  
O 18.7910000   10.9060000   17.9160000  
O 17.6480000   14.0020000   25.0390000  
O 18.7000000   11.6410000   25.9840000  
H 19.5600000    9.7690000   24.1750000  
H 19.6570000    9.1000000   21.4420000  
H 19.7130000    8.9430000   19.6930000  
H 17.3510000   14.8280000   24.5920000  
C 17.3480000   14.4590000   22.2860000  
C 16.0460000   14.5330000   21.7030000  
C 15.4300000   15.7200000   21.6110000  
C 16.0070000   16.9600000   21.7280000  
C 17.3160000   16.9740000   22.2710000  
C 18.0130000   15.7250000   22.5130000  
C 15.1170000   13.5060000   21.4000000  
C 13.9030000   14.1720000   21.0220000  
N 14.0910000   15.5670000   21.1490000  
O 12.7520000   12.1770000   20.6890000  
C 12.6180000   13.4880000   20.6850000  
O 11.5810000   14.1070000   20.6140000  
O 17.9640000   18.1640000   22.4550000  
O 19.2730000   15.7410000   23.1060000  
H 15.3670000   12.4530000   21.4850000  
H 13.6830000   11.9630000   20.9000000  
H 13.3460000   16.2460000   21.0010000  
H 17.3000000   18.8640000   22.3370000  
H 19.8210000   16.4640000   22.7240000  
C 15.2220000   18.2270000   21.3890000  
C 14.8760000   19.2290000   22.3540000  
C 14.1810000   20.3720000   22.0170000  
C 13.7380000   20.7430000   20.7370000  
C 14.1010000   19.8110000   19.7260000  
C 14.8630000   18.6410000   20.0410000  
C 15.1800000   19.3020000   23.7040000  
C 14.7570000   20.5670000   24.2060000  
N 14.1310000   21.1840000   23.1100000  
O 15.4710000   20.4030000   26.4960000  
C 14.9170000   21.1940000   25.5510000  
O 14.4250000   22.2790000   25.8300000  
O 13.9050000   19.9550000   18.3680000  
O 15.2530000   17.8220000   19.0270000  
H 15.6800000   18.4950000   24.2410000  
H 15.9030000   19.6350000   26.1490000  
H 13.8220000   22.1190000   23.0580000  
H 13.4220000   20.8200000   18.2890000  
H 14.9010000   18.0780000   18.1480000  
C 13.0210000   22.0460000   20.5700000  
C 13.7410000   23.2570000   20.6060000  
C 13.1360000   24.4980000   20.5150000  
C 11.7420000   24.6060000   20.4380000  
C 10.9950000   23.4400000   20.3750000  
C 11.6440000   22.1610000   20.4040000  
C 15.1290000   23.5010000   20.9150000  
C 15.3380000   24.8980000   20.9730000  
N 14.1010000   25.4740000   20.7410000  
O 17.7490000   24.9830000   21.0860000  
C 16.5750000   25.6910000   21.0370000  
O 16.4920000   26.8840000   21.0760000  
O  9.6300000   23.5920000   20.2980000  
O 10.8110000   21.0360000   20.3280000  
H 15.9490000   22.8140000   20.8990000  
H 17.5150000   24.0180000   21.0490000  
H 13.9610000   26.3940000   20.5390000  
H  9.2660000   22.6710000   20.3940000  
H 11.2930000   20.2900000   20.5890000  
H 11.2310000   25.5380000   20.3620000  
