76
000 
C 14.1140000   13.4750000   15.8730000  
C 15.2780000   12.6770000   15.4800000  
C 16.3790000   12.6850000   16.2860000  
C 16.4640000   13.3190000   17.5690000  
C 15.3670000   14.1840000   18.0020000  
C 14.3170000   14.2630000   17.1570000  
C 17.5740000   11.9520000   16.2170000  
C 18.3880000   12.3810000   17.2360000  
N 17.7200000   13.2890000   18.0480000  
O 20.1010000   10.7950000   16.8340000  
C 19.7650000   11.9600000   17.4630000  
O 20.5090000   12.4840000   18.2330000  
O 13.3770000   15.2380000   17.2890000  
O 13.0740000   13.3780000   15.2110000  
H 15.2410000   12.2060000   14.5170000  
H 17.6660000   11.1850000   15.4850000  
H 19.3490000   10.4930000   16.3730000  
H 13.6870000   15.8270000   18.0390000  
C 15.4880000   14.9770000   19.2470000  
C 16.3690000   16.0780000   19.2920000  
C 16.4210000   16.9050000   20.3730000  
C 15.6440000   16.7620000   21.5690000  
C 14.7010000   15.6880000   21.5520000  
C 14.5460000   14.8660000   20.3350000  
C 17.3510000   16.6140000   18.3230000  
C 17.8750000   17.7560000   18.9400000  
N 17.4080000   17.8670000   20.2870000  
O 19.2520000   18.4100000   17.0470000  
C 18.8390000   18.7040000   18.3180000  
O 19.3380000   19.5940000   18.9440000  
O 13.8170000   15.5900000   22.5410000  
O 13.5520000   13.9710000   20.2520000  
H 17.6120000   16.1600000   17.3990000  
H 18.6750000   17.6820000   16.8120000  
H 17.6460000   18.6210000   20.9200000  
H 14.1900000   15.9800000   23.3980000  
H 12.9680000   14.2260000   21.0020000  
C 15.6610000   17.7320000   22.6990000  
C 15.2630000   19.0740000   22.5390000  
C 15.3780000   19.9010000   23.5890000  
C 15.7880000   19.5260000   24.8750000  
C 16.0870000   18.2130000   25.0920000  
C 16.0210000   17.3200000   24.0060000  
C 14.8600000   19.8330000   21.4110000  
C 14.7600000   21.1710000   21.8690000  
N 15.0770000   21.2090000   23.2510000  
O 13.9850000   21.9050000   19.7350000  
C 14.4120000   22.2870000   20.9840000  
O 14.3820000   23.4290000   21.3490000  
O 16.5390000   17.8570000   26.3450000  
O 16.4400000   16.0000000   24.1570000  
H 14.6560000   19.4440000   20.4150000  
H 14.0870000   20.9320000   19.8340000  
H 15.0160000   22.0210000   23.9520000  
H 16.2170000   18.4700000   27.0670000  
H 16.7690000   15.9680000   25.1140000  
C 15.6270000   20.5250000   26.0100000  
C 14.3010000   20.7810000   26.4750000  
C 14.1080000   21.6960000   27.4660000  
C 15.1110000   22.4580000   28.0540000  
C 16.4390000   22.1860000   27.6680000  
C 16.6960000   21.1130000   26.7040000  
C 13.0150000   20.2710000   26.0580000  
C 12.0600000   20.9550000   26.8120000  
N 12.6920000   21.8110000   27.6200000  
O 10.4040000   19.7600000   25.7190000  
C 10.6760000   20.6770000   26.6210000  
O  9.7890000   21.2010000   27.2420000  
O 17.5190000   22.7590000   28.3470000  
O 18.0230000   20.8940000   26.3440000  
H 12.9520000   19.3950000   25.4020000  
H 11.1720000   19.2200000   25.6430000  
H 12.2560000   22.3570000   28.3680000  
H 18.3270000   22.4810000   27.8170000  
H 18.1030000   20.0880000   25.7800000  
H 14.9140000   23.3510000   28.5820000  
