76
000 
C 18.5320000   20.2830000   15.3260000  
C 17.4510000   20.7630000   14.5480000  
C 16.1510000   20.5540000   14.9970000  
C 15.8450000   20.1200000   16.2420000  
C 16.9020000   19.6330000   17.0430000  
C 18.1770000   19.6250000   16.5810000  
C 14.9210000   20.9560000   14.4460000  
C 13.9590000   20.5340000   15.3270000  
N 14.5510000   19.9340000   16.4520000  
O 12.2370000   21.4710000   13.9260000  
C 12.5130000   20.6580000   15.0150000  
O 11.5580000   20.1080000   15.5510000  
O 19.1850000   19.1070000   17.3330000  
O 19.6870000   20.3710000   14.9520000  
H 17.6860000   21.1580000   13.5390000  
H 14.7650000   21.5550000   13.5630000  
H 12.9930000   22.0990000   13.8810000  
H 18.8780000   18.7340000   18.2160000  
C 16.5280000   19.0150000   18.3250000  
C 16.0790000   17.6970000   18.4660000  
C 15.6540000   17.2270000   19.6510000  
C 15.9400000   17.8840000   20.8690000  
C 16.5000000   19.1320000   20.7650000  
C 16.7830000   19.7090000   19.5100000  
C 15.7140000   16.7450000   17.4750000  
C 15.1810000   15.6510000   18.2020000  
N 15.2800000   15.9460000   19.5630000  
O 14.7980000   14.3460000   16.2680000  
C 14.5500000   14.5060000   17.5760000  
O 14.0220000   13.6890000   18.3150000  
O 16.6310000   19.9120000   21.8550000  
O 17.2680000   21.0050000   19.5590000  
H 15.5590000   16.8170000   16.4370000  
H 15.3810000   15.1120000   16.0800000  
H 14.8370000   15.4220000   20.3170000  
H 16.7750000   19.3620000   22.6350000  
H 17.0910000   21.2960000   20.4860000  
C 15.5210000   17.3320000   22.1870000  
C 16.4860000   16.7630000   23.0750000  
C 16.1620000   16.2950000   24.3550000  
C 14.8440000   16.3770000   24.8830000  
C 13.8540000   16.9900000   24.0910000  
C 14.2040000   17.4500000   22.7830000  
C 17.8810000   16.5630000   22.9780000  
C 18.2950000   16.0490000   24.1800000  
N 17.2270000   15.9520000   25.0850000  
O 20.6400000   16.0780000   23.7430000  
C 19.6730000   15.8240000   24.6250000  
O 19.8650000   15.3700000   25.7850000  
O 12.6310000   17.0470000   24.5440000  
O 13.2090000   17.9040000   21.9870000  
H 18.5740000   16.7930000   22.1620000  
H 20.1330000   16.1430000   22.8800000  
H 17.2920000   15.6490000   26.0230000  
H 12.5610000   16.6450000   25.4170000  
H 12.3530000   17.8120000   22.4600000  
C 14.6180000   15.8080000   26.2770000  
C 14.4000000   16.6750000   27.3660000  
C 14.1360000   16.1390000   28.6140000  
C 14.1260000   14.7450000   28.8560000  
C 14.4050000   13.9010000   27.7750000  
C 14.6560000   14.3970000   26.4830000  
C 14.3460000   18.0790000   27.5560000  
C 14.2990000   18.2820000   28.9370000  
N 14.1910000   17.0160000   29.5880000  
O 14.3390000   20.6950000   28.8030000  
C 14.4070000   19.6250000   29.6060000  
O 14.3950000   19.7050000   30.8000000  
O 14.3510000   12.5390000   27.9360000  
O 14.8480000   13.6130000   25.3740000  
H 14.4020000   18.8770000   26.7620000  
H 14.1870000   20.2600000   27.9680000  
H 14.3110000   16.7910000   30.5230000  
H 14.2810000   12.0940000   27.0850000  
H 15.1890000   14.3120000   24.7000000  
H 13.6830000   14.4040000   29.8310000  
