76
000 
C 18.7730000   18.6010000   14.9240000  
C 17.8080000   18.1310000   13.9130000  
C 16.5300000   17.7120000   14.3250000  
C 16.1020000   17.6070000   15.6690000  
C 17.0310000   17.9320000   16.6940000  
C 18.3270000   18.4120000   16.3640000  
C 15.4110000   17.1970000   13.6090000  
C 14.3950000   16.8200000   14.4970000  
N 14.8660000   17.0930000   15.7450000  
O 12.8370000   15.9510000   12.8260000  
C 13.0880000   16.1690000   14.1840000  
O 12.3400000   15.6990000   15.0240000  
O 19.2800000   18.7520000   17.2650000  
O 19.8580000   19.1040000   14.6050000  
H 18.0580000   18.2890000   12.8790000  
H 15.4010000   17.0450000   12.5020000  
H 13.5920000   16.4370000   12.5430000  
H 18.8010000   18.7610000   18.1240000  
C 16.5210000   18.0150000   18.0620000  
C 16.4200000   16.8310000   18.8260000  
C 16.0620000   16.9770000   20.1120000  
C 15.7750000   18.1590000   20.7850000  
C 16.0250000   19.3360000   20.0640000  
C 16.3620000   19.2170000   18.7180000  
C 16.5790000   15.3780000   18.5850000  
C 16.1070000   14.7790000   19.7580000  
N 15.8710000   15.7690000   20.7310000  
O 16.5940000   12.6720000   18.8550000  
C 16.0250000   13.3110000   19.9320000  
O 15.5760000   12.6460000   20.8920000  
O 15.7020000   20.5730000   20.5810000  
O 16.4450000   20.3890000   18.0060000  
H 16.9010000   14.9310000   17.6520000  
H 16.9130000   13.4770000   18.4350000  
H 15.4070000   15.6200000   21.6370000  
H 15.2750000   20.1850000   21.3530000  
H 16.6660000   21.1110000   18.5760000  
C 15.3460000   18.1200000   22.2230000  
C 16.2180000   17.5990000   23.2460000  
C 15.7510000   17.5930000   24.5260000  
C 14.4330000   17.9420000   24.8880000  
C 13.6140000   18.4090000   23.8700000  
C 14.0860000   18.6020000   22.5800000  
C 17.5410000   17.0130000   23.2700000  
C 17.8440000   16.8700000   24.6620000  
N 16.7470000   17.1790000   25.4090000  
O 20.0630000   16.2060000   24.1910000  
C 19.0990000   16.4070000   25.1210000  
O 19.3490000   16.2780000   26.2840000  
O 12.3850000   18.8590000   24.2190000  
O 13.2300000   18.8900000   21.5690000  
H 18.2170000   16.8960000   22.4470000  
H 19.7570000   16.4610000   23.3380000  
H 16.6200000   17.1260000   26.3870000  
H 12.2710000   18.8090000   25.2430000  
H 12.3370000   18.8720000   21.8680000  
C 13.9790000   17.8180000   26.3320000  
C 14.0830000   18.8500000   27.3270000  
C 13.9150000   18.5880000   28.6730000  
C 13.6590000   17.2930000   29.1100000  
C 13.4400000   16.2720000   28.2230000  
C 13.5020000   16.5250000   26.8330000  
C 14.4810000   20.1980000   27.1860000  
C 14.4180000   20.7540000   28.4710000  
N 14.1010000   19.7490000   29.3560000  
O 15.0590000   22.9930000   27.8440000  
C 14.6450000   22.1790000   28.8810000  
O 14.4310000   22.6150000   30.0130000  
O 13.0920000   15.0610000   28.6880000  
O 13.3830000   15.5340000   25.8680000  
H 14.7360000   20.7350000   26.2610000  
H 15.1470000   22.4680000   27.0670000  
H 14.0700000   19.9090000   30.2990000  
H 12.8720000   14.4960000   27.9650000  
H 13.8180000   15.7930000   24.9890000  
H 13.6160000   16.9880000   30.2330000  
