76
000 
C 19.4370000   11.2660000   21.7260000  
C 19.3140000   10.6540000   20.3520000  
C 18.6120000   11.3200000   19.3700000  
C 17.9520000   12.5440000   19.5500000  
C 18.0070000   13.1610000   20.8610000  
C 18.6500000   12.5220000   21.9180000  
C 18.3950000   10.9970000   17.9940000  
C 17.6420000   12.0430000   17.4340000  
N 17.4060000   13.0060000   18.4080000  
O 17.8270000   11.5000000   15.1590000  
C 17.3180000   12.3270000   16.0330000  
O 16.7870000   13.3410000   15.6950000  
O 18.6730000   13.0810000   23.1530000  
O 20.0410000   10.7550000   22.6570000  
H 19.7650000    9.6420000   20.2570000  
H 18.7040000   10.0220000   17.5900000  
H 18.4280000   10.9470000   15.7550000  
H 18.0620000   13.8400000   23.1020000  
C 17.4150000   14.4290000   21.0700000  
C 16.1070000   14.6880000   20.8480000  
C 15.6190000   15.9280000   21.0060000  
C 16.2560000   17.0540000   21.5150000  
C 17.6340000   16.8770000   21.5840000  
C 18.1700000   15.5960000   21.4680000  
C 15.0220000   13.8880000   20.4430000  
C 13.8790000   14.6500000   20.4640000  
N 14.2370000   15.9760000   20.8180000  
O 12.7340000   13.0380000   19.2470000  
C 12.6530000   14.2470000   19.7310000  
O 11.6380000   14.9210000   19.6040000  
O 18.4650000   17.9950000   21.6140000  
O 19.5130000   15.5520000   21.5040000  
H 15.0840000   12.9340000   20.0580000  
H 13.5260000   12.6640000   19.6480000  
H 13.5050000   16.7260000   20.9710000  
H 17.9080000   18.7360000   21.9130000  
H 19.9850000   16.3910000   21.5540000  
C 15.5500000   18.3630000   21.7070000  
C 15.0170000   18.6570000   22.9760000  
C 14.4350000   19.8930000   23.1890000  
C 14.2730000   20.8870000   22.1870000  
C 14.8320000   20.5810000   20.9240000  
C 15.4970000   19.3460000   20.7090000  
C 14.7640000   17.9000000   24.1960000  
C 14.0760000   18.6910000   25.0630000  
N 13.8170000   19.9290000   24.4120000  
O 14.1530000   17.1460000   26.9600000  
C 13.7630000   18.3940000   26.5210000  
O 13.1490000   19.2300000   27.1490000  
O 14.8290000   21.4980000   19.8570000  
O 15.8910000   18.9910000   19.4470000  
H 15.0360000   16.9070000   24.4290000  
H 14.6200000   16.7200000   26.1910000  
H 13.2700000   20.6480000   24.6880000  
H 14.4290000   22.2850000   20.1810000  
H 15.7050000   19.7540000   18.8640000  
C 13.6120000   22.2310000   22.3530000  
C 14.0720000   23.2260000   23.2460000  
C 13.5720000   24.5280000   23.2170000  
C 12.5000000   24.8480000   22.3920000  
C 12.0080000   23.9790000   21.5090000  
C 12.5320000   22.6640000   21.5120000  
C 15.1140000   23.1940000   24.2420000  
C 15.2260000   24.4910000   24.7990000  
N 14.2940000   25.2930000   24.0480000  
O 17.1310000   23.8990000   26.2380000  
C 16.2110000   24.8930000   25.9310000  
O 16.1220000   25.9150000   26.5670000  
O 11.0610000   24.3200000   20.6330000  
O 11.9420000   21.8110000   20.5910000  
H 15.7080000   22.3110000   24.5250000  
H 16.8290000   23.0830000   25.8210000  
H 14.2000000   26.2840000   24.1040000  
H 10.8130000   23.5220000   20.1600000  
H 12.2550000   20.8740000   20.6620000  
H 12.0470000   25.8480000   22.4980000  
