76
000 
C 14.6350000   23.8840000   17.1720000  
C 15.3650000   24.8430000   17.9750000  
C 15.9550000   24.4870000   19.1530000  
C 15.8650000   23.1660000   19.6280000  
C 15.1320000   22.1560000   18.9350000  
C 14.5570000   22.4950000   17.6980000  
C 16.7170000   25.2060000   20.0790000  
C 17.0240000   24.2440000   21.0530000  
N 16.5690000   23.0380000   20.7390000  
O 18.2470000   25.8790000   22.3330000  
C 17.8770000   24.5460000   22.1190000  
O 18.1780000   23.7340000   22.9650000  
O 13.8690000   21.6210000   16.9000000  
O 14.0440000   24.2190000   16.1480000  
H 15.3980000   25.9270000   17.6210000  
H 17.1310000   26.2660000   19.9890000  
H 17.9840000   26.4170000   21.5990000  
H 13.9500000   20.7350000   17.2980000  
C 15.2450000   20.7460000   19.4040000  
C 14.6340000   20.3550000   20.6130000  
C 14.9350000   19.1790000   21.2150000  
C 15.6040000   18.1260000   20.6070000  
C 16.0000000   18.3870000   19.2790000  
C 15.8170000   19.6790000   18.6830000  
C 13.7840000   21.0700000   21.5050000  
C 13.6150000   20.2520000   22.5960000  
N 14.3700000   19.0760000   22.4190000  
O 11.7630000   21.3920000   23.7160000  
C 12.6210000   20.3940000   23.6860000  
O 12.5560000   19.6410000   24.6060000  
O 16.7780000   17.4810000   18.6970000  
O 16.2810000   19.8620000   17.4490000  
H 13.5100000   22.1320000   21.3650000  
H 11.9300000   21.9220000   22.9460000  
H 14.1820000   18.1930000   22.8680000  
H 16.9330000   16.8730000   19.4670000  
H 16.8860000   19.1030000   17.4300000  
C 15.8610000   16.9120000   21.4030000  
C 14.8010000   16.0390000   21.7150000  
C 14.9640000   15.0030000   22.5760000  
C 16.1370000   14.6600000   23.2310000  
C 17.2850000   15.4280000   22.7840000  
C 17.0900000   16.5560000   21.9140000  
C 13.3740000   16.1410000   21.4350000  
C 12.8000000   15.2090000   22.2170000  
N 13.7760000   14.4170000   22.9360000  
O 10.6470000   15.8800000   21.4720000  
C 11.3400000   14.8980000   22.0540000  
O 10.8300000   13.9480000   22.6570000  
O 18.5140000   15.2030000   23.3370000  
O 18.1990000   17.3500000   21.5420000  
H 12.8110000   16.8920000   20.8550000  
H 11.2900000   16.6300000   21.6320000  
H 13.6370000   13.5990000   23.5610000  
H 18.4150000   14.4520000   23.9470000  
H 18.8720000   17.0700000   22.1800000  
C 16.2710000   13.4400000   24.1700000  
C 16.8430000   12.2940000   23.5900000  
C 17.1810000   11.1940000   24.3560000  
C 16.9870000   11.1560000   25.7570000  
C 16.4700000   12.2860000   26.3550000  
C 16.0920000   13.3830000   25.5440000  
C 17.2540000   12.0440000   22.2780000  
C 17.7980000   10.7590000   22.2770000  
N 17.7880000   10.2960000   23.5820000  
O 18.2650000   10.6990000   19.9580000  
C 18.5090000   10.1330000   21.1480000  
O 19.2690000    9.1530000   21.2290000  
O 16.2300000   12.2990000   27.6980000  
O 15.5980000   14.4780000   26.1790000  
H 17.2650000   12.6990000   21.4340000  
H 17.6970000   11.4650000   20.1550000  
H 18.3060000    9.4620000   23.8670000  
H 16.1480000   13.1900000   27.9990000  
H 15.0840000   15.0510000   25.6150000  
H 17.3390000   10.2970000   26.3010000  
