76
000 
C 13.3530000   22.7180000   16.9480000  
C 14.1340000   22.6010000   15.7280000  
C 15.0680000   21.6050000   15.5870000  
C 15.3510000   20.6410000   16.5730000  
C 14.4940000   20.6410000   17.7040000  
C 13.5810000   21.6520000   17.9610000  
C 16.0000000   21.3870000   14.5470000  
C 16.7330000   20.2650000   15.0030000  
N 16.3110000   19.8380000   16.2730000  
O 18.1230000   20.1010000   13.1060000  
C 17.8280000   19.6070000   14.2920000  
O 18.4600000   18.6630000   14.7890000  
O 12.7610000   21.6420000   19.0520000  
O 12.6170000   23.6700000   17.0120000  
H 13.8800000   23.3880000   14.9870000  
H 16.0460000   21.9070000   13.5890000  
H 17.5840000   20.9040000   13.0720000  
H 13.0520000   20.9730000   19.6920000  
C 14.6230000   19.6100000   18.7050000  
C 15.8650000   19.4330000   19.2590000  
C 16.0450000   18.6230000   20.3150000  
C 15.0120000   17.8000000   20.8870000  
C 13.7440000   17.8600000   20.2530000  
C 13.5530000   18.7630000   19.1380000  
C 17.1750000   20.0230000   19.0920000  
C 18.0230000   19.4930000   20.0010000  
N 17.3080000   18.5430000   20.6890000  
O 19.8460000   21.0700000   19.5070000  
C 19.4050000   20.0340000   20.2910000  
O 20.2630000   19.4040000   20.8340000  
O 12.6920000   17.1360000   20.7310000  
O 12.2890000   18.7650000   18.5320000  
H 17.4070000   20.7150000   18.3420000  
H 19.0110000   21.4130000   19.0700000  
H 17.7220000   17.8070000   21.1610000  
H 13.0700000   16.3500000   21.1850000  
H 11.6880000   18.2010000   19.0550000  
C 15.3250000   16.8250000   21.9380000  
C 15.7220000   17.2550000   23.1940000  
C 16.0750000   16.2990000   24.1720000  
C 15.8780000   14.8770000   23.9820000  
C 15.5180000   14.4560000   22.7250000  
C 15.2450000   15.4180000   21.7080000  
C 16.0300000   18.5440000   23.7960000  
C 16.4130000   18.3220000   25.0850000  
N 16.4420000   16.8970000   25.3400000  
O 16.9000000   20.6360000   25.6950000  
C 16.8490000   19.3510000   26.1080000  
O 17.0990000   19.0400000   27.3000000  
O 15.3690000   13.0830000   22.4290000  
O 14.9100000   14.9320000   20.4550000  
H 16.2020000   19.5130000   23.2530000  
H 16.6610000   20.7120000   24.7730000  
H 16.8450000   16.4760000   26.1760000  
H 15.5790000   12.6730000   23.2530000  
H 14.9680000   13.9360000   20.4250000  
C 15.9150000   13.8690000   25.0910000  
C 15.0070000   14.0280000   26.1820000  
C 15.0410000   13.1720000   27.2610000  
C 16.0120000   12.1360000   27.4210000  
C 16.9520000   12.0730000   26.3200000  
C 16.9290000   12.9510000   25.2650000  
C 13.9750000   14.9790000   26.3930000  
C 13.4060000   14.6960000   27.6140000  
N 14.0580000   13.5640000   28.2000000  
O 11.7790000   16.4300000   27.6080000  
C 12.3260000   15.4410000   28.3150000  
O 11.9900000   15.1550000   29.4450000  
O 17.9300000   11.1640000   26.4230000  
O 17.9030000   12.8040000   24.3320000  
H 13.5690000   15.7800000   25.6560000  
H 12.1610000   16.3120000   26.6850000  
H 13.7770000   13.0250000   29.0280000  
H 18.6090000   11.3460000   25.7420000  
H 17.5840000   13.3080000   23.5070000  
H 16.1330000   11.4350000   28.2690000  
