76
000 
C 13.6760000   20.5750000   28.5080000  
C 15.0070000   20.6690000   29.2120000  
C 16.1270000   20.1600000   28.5970000  
C 16.1840000   19.7270000   27.2810000  
C 14.9670000   19.6720000   26.5110000  
C 13.7670000   20.1150000   27.0660000  
C 17.4700000   20.0240000   29.0080000  
C 18.2140000   19.4890000   27.9260000  
N 17.4030000   19.3080000   26.8270000  
O 20.3920000   19.3300000   29.0300000  
C 19.6450000   19.0290000   27.9500000  
O 20.1670000   18.4830000   27.0450000  
O 12.6340000   20.2100000   26.4230000  
O 12.7270000   21.0050000   29.0830000  
H 15.0140000   21.1420000   30.2180000  
H 17.8650000   20.2380000   29.9690000  
H 19.9610000   19.8870000   29.7500000  
H 12.7560000   20.0640000   25.4750000  
C 15.1210000   19.3160000   25.1190000  
C 15.4810000   18.0060000   24.7640000  
C 15.5740000   17.6610000   23.4510000  
C 15.4260000   18.4700000   22.2910000  
C 15.1000000   19.8140000   22.7140000  
C 14.9780000   20.2780000   24.1060000  
C 15.6910000   16.8210000   25.5200000  
C 16.0150000   15.8400000   24.5910000  
N 16.0680000   16.3620000   23.3060000  
O 16.1840000   14.0270000   26.1260000  
C 16.1440000   14.3580000   24.8210000  
O 16.2360000   13.5260000   23.9380000  
O 14.9100000   20.7370000   21.7560000  
O 14.7110000   21.5970000   24.4400000  
H 15.3280000   16.7000000   26.5630000  
H 15.9950000   14.8760000   26.5840000  
H 16.1960000   15.8200000   22.4390000  
H 14.8160000   20.2620000   20.9160000  
H 14.4890000   22.0050000   23.5690000  
C 15.6090000   17.9820000   20.8970000  
C 14.8620000   16.8280000   20.4570000  
C 15.0560000   16.2920000   19.2150000  
C 15.9360000   16.7920000   18.2560000  
C 16.6770000   17.9570000   18.6400000  
C 16.4690000   18.5670000   19.9040000  
C 13.8800000   15.9830000   21.1100000  
C 13.4720000   15.0500000   20.2270000  
N 14.2210000   15.1820000   19.1050000  
O 11.5000000   14.1400000   21.3580000  
C 12.2790000   14.1010000   20.2700000  
O 11.9210000   13.3100000   19.3880000  
O 17.5750000   18.5360000   17.7690000  
O 17.1470000   19.6700000   20.2680000  
H 13.4370000   16.1940000   22.0450000  
H 11.7260000   15.0010000   21.8680000  
H 14.0300000   14.6010000   18.2750000  
H 17.3180000   18.2270000   16.8690000  
H 17.8310000   19.7300000   19.5700000  
C 16.0570000   16.1940000   16.9050000  
C 15.4640000   16.7840000   15.8020000  
C 15.7390000   16.2290000   14.5620000  
C 16.5530000   15.0850000   14.4040000  
C 17.1410000   14.4970000   15.4650000  
C 16.8740000   15.0560000   16.7800000  
C 14.8290000   18.0790000   15.6000000  
C 14.8660000   18.3300000   14.2450000  
N 15.3890000   17.1880000   13.6070000  
O 14.1350000   20.5400000   14.3360000  
C 14.4850000   19.5400000   13.5640000  
O 14.5450000   19.6460000   12.3630000  
O 17.9740000   13.3990000   15.2770000  
O 17.3170000   14.3540000   17.8440000  
H 14.6730000   18.8750000   16.3320000  
H 14.0690000   20.0940000   15.2000000  
H 15.6580000   17.0880000   12.6110000  
H 18.2340000   13.0580000   16.2120000  
H 16.7890000   14.6680000   18.6120000  
H 16.7800000   14.7750000   13.4360000  
