76
000 
C 18.8360000   11.4290000   20.1700000  
C 19.0450000   11.1470000   18.7470000  
C 18.4690000   11.9890000   17.8130000  
C 17.9570000   13.2530000   18.1340000  
C 17.8120000   13.6350000   19.5150000  
C 18.1950000   12.7340000   20.4640000  
C 18.3360000   11.9190000   16.3380000  
C 17.8760000   13.1750000   15.9350000  
N 17.5940000   13.9320000   17.0400000  
O 18.1030000   12.8370000   13.5940000  
C 17.6860000   13.6690000   14.5400000  
O 17.0370000   14.7140000   14.2430000  
O 18.0150000   13.0190000   21.8200000  
O 19.2630000   10.6730000   21.0340000  
H 19.5890000   10.2220000   18.5030000  
H 18.7240000   11.0780000   15.7510000  
H 18.4190000   12.1280000   13.9790000  
H 17.4050000   13.7870000   21.8030000  
C 17.2690000   14.9110000   19.8890000  
C 15.9180000   15.2020000   19.9050000  
C 15.4320000   16.3430000   20.4360000  
C 16.2090000   17.3850000   20.9920000  
C 17.6010000   17.0680000   21.0060000  
C 18.1080000   15.8380000   20.4370000  
C 14.8260000   14.4660000   19.3880000  
C 13.7070000   15.2140000   19.7360000  
N 14.1100000   16.3770000   20.4310000  
O 12.2180000   13.9860000   18.3710000  
C 12.3460000   14.9720000   19.2680000  
O 11.3890000   15.5680000   19.7180000  
O 18.4390000   18.0140000   21.5640000  
O 19.4000000   15.5070000   20.5970000  
H 14.7830000   13.5260000   18.8650000  
H 13.1390000   13.7980000   18.1200000  
H 13.5480000   17.2090000   20.4560000  
H 17.9960000   18.7990000   21.8880000  
H 19.8370000   16.3750000   20.8360000  
C 15.6540000   18.5550000   21.7580000  
C 14.9150000   18.4190000   22.9320000  
C 14.4210000   19.5010000   23.6030000  
C 14.6550000   20.8200000   23.1630000  
C 15.4600000   20.9870000   22.0990000  
C 15.9090000   19.9150000   21.3360000  
C 14.5120000   17.2200000   23.6790000  
C 13.8160000   17.7450000   24.8210000  
N 13.7630000   19.1630000   24.7850000  
O 13.3670000   15.6150000   25.5430000  
C 13.2150000   16.8960000   25.8330000  
O 12.7250000   17.3310000   26.8560000  
O 15.6770000   22.2130000   21.5780000  
O 16.5820000   20.1690000   20.1630000  
H 14.5770000   16.2350000   23.2980000  
H 13.7570000   15.5570000   24.6400000  
H 13.3830000   19.7730000   25.4750000  
H 15.1920000   22.8990000   22.1510000  
H 16.6490000   21.1240000   20.0770000  
C 13.9160000   22.0230000   23.7220000  
C 14.2860000   22.5480000   24.9950000  
C 13.7820000   23.7900000   25.4070000  
C 12.8160000   24.5020000   24.7040000  
C 12.2820000   23.9280000   23.4950000  
C 12.8750000   22.6970000   22.9910000  
C 15.3290000   22.1020000   25.8920000  
C 15.4590000   23.0990000   26.8510000  
N 14.5320000   24.1950000   26.5400000  
O 16.9920000   21.9450000   28.1960000  
C 16.3890000   23.1340000   27.9500000  
O 16.5620000   24.0600000   28.7020000  
O 11.2320000   24.5030000   22.8990000  
O 12.5460000   22.2680000   21.6960000  
H 15.9270000   21.2880000   25.8190000  
H 16.7540000   21.4420000   27.4050000  
H 14.4580000   25.0990000   27.0210000  
H 11.3530000   24.2780000   21.9330000  
H 12.9440000   21.4350000   21.4910000  
H 12.4360000   25.4140000   25.1280000  
