76
000 
C 13.6250000   23.3090000   26.8160000  
C 14.8690000   23.3530000   27.6010000  
C 15.9880000   22.7230000   27.0440000  
C 16.0180000   22.0270000   25.8320000  
C 14.7850000   21.8180000   25.1360000  
C 13.6360000   22.4330000   25.6050000  
C 17.3130000   22.6020000   27.5460000  
C 18.0120000   21.7780000   26.6300000  
N 17.1900000   21.4210000   25.5420000  
O 20.0520000   21.9360000   27.8640000  
C 19.4830000   21.4080000   26.7660000  
O 20.1050000   20.7380000   25.9530000  
O 12.4320000   22.3160000   24.9120000  
O 12.6370000   23.8760000   27.2780000  
H 14.7880000   23.7850000   28.5720000  
H 17.6920000   23.0370000   28.4170000  
H 19.5400000   22.6250000   28.2560000  
H 12.7400000   21.8470000   24.1130000  
C 14.7870000   20.7720000   24.0980000  
C 14.8270000   19.3540000   24.3180000  
C 14.9510000   18.4210000   23.2890000  
C 15.0340000   18.6970000   21.9220000  
C 14.9040000   20.1330000   21.7250000  
C 14.9100000   21.1260000   22.7050000  
C 14.9040000   18.6470000   25.5520000  
C 15.0800000   17.2920000   25.2570000  
N 15.0710000   17.1410000   23.8160000  
O 15.1880000   16.6330000   27.6290000  
C 15.1930000   16.2370000   26.3200000  
O 15.3660000   15.0740000   26.0250000  
O 14.9130000   20.6230000   20.3930000  
O 14.8750000   22.4970000   22.3330000  
H 14.8120000   19.2030000   26.4830000  
H 15.1750000   17.5960000   27.6940000  
H 15.1670000   16.3100000   23.3220000  
H 15.6390000   20.0490000   19.9880000  
H 15.0540000   22.5240000   21.3780000  
C 15.3250000   17.6480000   20.8280000  
C 14.6130000   16.4540000   20.7570000  
C 14.9490000   15.4730000   19.8680000  
C 16.0540000   15.4640000   19.0130000  
C 16.7510000   16.7660000   18.9160000  
C 16.3360000   17.8140000   19.8260000  
C 13.4230000   15.9570000   21.4500000  
C 13.0910000   14.7380000   20.8390000  
N 14.0810000   14.4300000   19.8950000  
O 10.9300000   14.5190000   21.8370000  
C 11.8120000   14.0280000   20.9360000  
O 11.6080000   13.1060000   20.2120000  
O 17.7690000   16.9910000   18.0490000  
O 17.1500000   18.9300000   19.8290000  
H 12.8790000   16.3590000   22.2870000  
H 11.5550000   15.0820000   22.2710000  
H 14.0770000   13.7710000   19.1440000  
H 17.8980000   16.1920000   17.5020000  
H 17.9470000   18.6800000   19.3680000  
C 16.4480000   14.2860000   18.1530000  
C 16.5520000   14.3330000   16.6900000  
C 16.7760000   13.1760000   15.9430000  
C 17.0980000   11.9590000   16.5300000  
C 17.1390000   11.9000000   17.9790000  
C 16.6900000   13.0160000   18.7240000  
C 16.2530000   15.3940000   15.7610000  
C 16.5570000   14.8250000   14.4970000  
N 16.8900000   13.4710000   14.6460000  
O 16.0470000   16.9160000   13.3500000  
C 16.4000000   15.6000000   13.2380000  
O 16.6200000   15.1750000   12.1230000  
O 17.4550000   10.7370000   18.6740000  
O 16.7940000   12.8770000   20.1350000  
H 15.8550000   16.3650000   15.9340000  
H 16.0120000   17.0440000   14.3100000  
H 17.1700000   12.8440000   13.8750000  
H 17.8550000   11.1210000   19.4240000  
H 16.6950000   13.7770000   20.5330000  
H 17.4560000   11.1160000   15.9380000  
