76
000 
C 14.7660000   10.3990000   21.9080000  
C 15.9250000    9.7730000   22.6930000  
C 16.8840000   10.6340000   23.2880000  
C 16.8120000   12.0180000   23.1510000  
C 15.7850000   12.6560000   22.3550000  
C 14.7810000   11.8780000   21.8140000  
C 18.0450000   10.3280000   24.0320000  
C 18.7140000   11.5650000   24.2230000  
N 17.9250000   12.5660000   23.6370000  
O 20.4260000   10.6060000   25.5720000  
C 19.9690000   11.7210000   24.9900000  
O 20.5770000   12.7590000   25.1340000  
O 13.8500000   12.3740000   21.0220000  
O 13.9230000    9.6330000   21.4360000  
H 15.9640000    8.7150000   22.7820000  
H 18.3780000    9.3330000   24.2180000  
H 19.7690000    9.9060000   25.8090000  
H 13.9950000   13.3240000   21.0990000  
C 15.7670000   14.1310000   22.2750000  
C 16.5950000   14.8040000   21.3800000  
C 16.5100000   16.1470000   21.1610000  
C 15.8120000   16.9920000   22.0020000  
C 15.0280000   16.3240000   23.0390000  
C 15.0020000   14.8830000   23.1190000  
C 17.5840000   14.3580000   20.4090000  
C 18.0920000   15.5740000   19.8070000  
N 17.4090000   16.7060000   20.2740000  
O 19.8960000   14.4700000   18.7450000  
C 19.2670000   15.6610000   18.8970000  
O 19.7030000   16.7060000   18.4430000  
O 14.1730000   17.0130000   23.8380000  
O 14.0830000   14.3600000   23.9530000  
H 18.0470000   13.3780000   20.3460000  
H 19.4320000   13.8660000   19.3720000  
H 17.6970000   17.6630000   20.0660000  
H 14.4090000   17.9690000   23.5670000  
H 13.2510000   14.8350000   23.8270000  
C 15.6370000   18.4670000   21.8490000  
C 14.9400000   18.9300000   20.6850000  
C 14.7480000   20.2550000   20.3950000  
C 15.3200000   21.2230000   21.2620000  
C 15.8900000   20.7540000   22.4700000  
C 16.0760000   19.3890000   22.7360000  
C 14.3600000   18.2780000   19.5430000  
C 13.8290000   19.2660000   18.6840000  
N 14.0170000   20.5490000   19.2560000  
O 12.8440000   17.5770000   17.1670000  
C 13.1190000   18.9190000   17.3810000  
O 12.7520000   19.6490000   16.5010000  
O 16.6550000   21.6740000   23.2410000  
O 16.5380000   19.0210000   23.9530000  
H 14.1770000   17.2270000   19.3720000  
H 13.2230000   17.0910000   17.9910000  
H 13.3780000   21.3410000   19.0490000  
H 16.6980000   22.4880000   22.6980000  
H 16.7580000   19.8150000   24.4490000  
C 15.0700000   22.7120000   21.0600000  
C 14.0760000   23.3330000   21.8080000  
C 13.6610000   24.6690000   21.4640000  
C 14.2580000   25.3730000   20.3520000  
C 15.2990000   24.7380000   19.6490000  
C 15.7200000   23.4370000   19.9920000  
C 13.2920000   22.9490000   22.9610000  
C 12.6090000   24.0670000   23.4310000  
N 12.7290000   25.0470000   22.4350000  
O 11.9080000   23.2130000   25.4980000  
C 11.7120000   24.2160000   24.5960000  
O 10.9570000   25.1800000   24.7470000  
O 16.0920000   25.4450000   18.7910000  
O 16.6050000   22.7800000   19.1600000  
H 13.3920000   21.9380000   23.3850000  
H 12.6710000   22.7010000   25.2780000  
H 12.2530000   25.9200000   22.4610000  
H 17.0570000   25.2510000   19.0110000  
H 16.6280000   21.8420000   19.2420000  
H 13.9860000   26.3870000   20.2190000  
