76
000 
C 13.1310000   24.4230000   24.0230000  
C 14.2010000   24.8130000   25.0550000  
C 15.3930000   24.1410000   25.1370000  
C 15.6440000   23.0370000   24.3170000  
C 14.6130000   22.5010000   23.4330000  
C 13.4150000   23.1860000   23.2550000  
C 16.4750000   24.2630000   25.9820000  
C 17.4070000   23.2690000   25.5610000  
N 16.7760000   22.3620000   24.6340000  
O 19.1790000   24.1470000   26.8890000  
C 18.7880000   23.1120000   26.0810000  
O 19.4980000   22.1440000   25.9560000  
O 12.4560000   22.7640000   22.4660000  
O 12.1470000   25.2030000   23.8940000  
H 13.9960000   25.6880000   25.6720000  
H 16.5030000   24.9950000   26.7920000  
H 18.5160000   24.9220000   26.8160000  
H 12.7860000   21.9060000   22.3510000  
C 14.9100000   21.1680000   22.8110000  
C 14.8410000   20.0380000   23.5990000  
C 15.1980000   18.7650000   23.1700000  
C 15.6870000   18.5130000   21.8660000  
C 15.8080000   19.6770000   21.1400000  
C 15.4650000   20.9710000   21.5500000  
C 14.4720000   19.8380000   25.0050000  
C 14.8630000   18.5130000   25.3300000  
N 15.1420000   17.8030000   24.1990000  
O 14.6700000   18.8340000   27.6450000  
C 14.8800000   17.9620000   26.6870000  
O 15.0680000   16.7680000   26.8670000  
O 16.2010000   19.5260000   19.8860000  
O 15.6470000   22.0290000   20.6830000  
H 14.2260000   20.6180000   25.6460000  
H 14.6230000   19.7090000   27.1810000  
H 15.1610000   16.7790000   24.1350000  
H 16.8490000   18.7640000   19.8450000  
H 16.2930000   21.7760000   19.9900000  
C 15.9060000   17.1620000   21.3540000  
C 14.9630000   16.0880000   21.3810000  
C 15.2010000   14.9140000   20.7360000  
C 16.3680000   14.5290000   20.0570000  
C 17.3990000   15.5520000   20.1630000  
C 17.1000000   16.8220000   20.7220000  
C 13.5800000   16.0400000   21.7840000  
C 13.1350000   14.7890000   21.4390000  
N 14.0850000   14.1200000   20.6390000  
O 10.8800000   15.1810000   22.1320000  
C 11.7500000   14.2540000   21.6820000  
O 11.3790000   13.1500000   21.4620000  
O 18.6050000   15.3660000   19.4780000  
O 18.1020000   17.6830000   20.7280000  
H 13.0260000   16.8410000   22.2940000  
H 11.3810000   16.0270000   21.9630000  
H 13.9550000   13.3830000   19.9900000  
H 18.5460000   14.3810000   19.2580000  
H 18.8980000   17.3850000   20.1980000  
C 16.4380000   13.1660000   19.3380000  
C 16.4940000   13.0720000   17.9290000  
C 16.7540000   11.9120000   17.2660000  
C 16.9170000   10.7220000   17.9490000  
C 16.8790000   10.7730000   19.3130000  
C 16.5410000   11.9380000   20.0290000  
C 16.2850000   14.0660000   16.8510000  
C 16.5800000   13.4240000   15.6270000  
N 16.8500000   12.0620000   15.9350000  
O 16.4270000   15.3050000   14.1570000  
C 16.6550000   13.9560000   14.2470000  
O 16.8500000   13.2320000   13.2750000  
O 17.0110000    9.6190000   19.9980000  
O 16.5920000   11.8880000   21.3990000  
H 15.9550000   15.1030000   16.9000000  
H 16.2540000   15.7440000   15.0520000  
H 17.1770000   11.3460000   15.3030000  
H 16.6980000    9.7920000   20.9510000  
H 16.4380000   12.7620000   21.7980000  
H 17.1210000    9.7770000   17.3790000  
