76
000 
C 13.8340000   24.6230000   19.3030000  
C 14.8810000   25.5030000   19.9060000  
C 15.7910000   24.9150000   20.7440000  
C 15.7310000   23.5620000   21.1400000  
C 14.7790000   22.6460000   20.4950000  
C 13.7900000   23.2190000   19.6610000  
C 16.8580000   25.4250000   21.4760000  
C 17.4250000   24.4010000   22.2130000  
N 16.7170000   23.2280000   21.9460000  
O 19.2800000   25.5970000   23.0670000  
C 18.6810000   24.4320000   23.0040000  
O 19.0410000   23.5040000   23.7290000  
O 12.7270000   22.4920000   19.1820000  
O 13.1380000   25.0890000   18.4120000  
H 14.9940000   26.5410000   19.5270000  
H 17.2600000   26.4130000   21.4080000  
H 18.9460000   26.1760000   22.3200000  
H 13.0730000   21.5500000   19.2760000  
C 14.8840000   21.1600000   20.7120000  
C 14.6740000   20.5870000   21.9680000  
C 14.8450000   19.2440000   22.1430000  
C 15.3840000   18.3440000   21.1940000  
C 15.6560000   18.9450000   19.9380000  
C 15.4410000   20.3460000   19.7010000  
C 14.0890000   21.0890000   23.1890000  
C 14.0130000   19.9840000   24.0520000  
N 14.4330000   18.8550000   23.3970000  
O 13.3620000   21.2000000   26.0010000  
C 13.4860000   19.9770000   25.4200000  
O 13.1450000   18.9070000   25.9190000  
O 16.0340000   18.1010000   18.8860000  
O 15.6010000   20.8560000   18.3980000  
H 13.6670000   22.0760000   23.4320000  
H 14.0050000   21.7920000   25.5590000  
H 14.4860000   17.9500000   23.8210000  
H 15.8350000   17.2420000   19.2140000  
H 16.0830000   20.2130000   17.8470000  
C 15.6790000   16.9670000   21.5340000  
C 14.6170000   16.1820000   21.9250000  
C 14.8690000   14.8340000   22.1320000  
C 16.1690000   14.2030000   22.2030000  
C 17.2440000   15.0870000   21.9140000  
C 17.0240000   16.4800000   21.5540000  
C 13.2220000   16.4060000   21.9120000  
C 12.6990000   15.0860000   22.0540000  
N 13.7220000   14.0960000   22.1910000  
O 10.4610000   15.8120000   21.7380000  
C 11.2160000   14.7630000   21.9260000  
O 10.8000000   13.6060000   21.8890000  
O 18.5260000   14.6850000   21.9620000  
O 18.1430000   17.3120000   21.3860000  
H 12.6110000   17.3410000   21.8910000  
H 11.1470000   16.5410000   21.7410000  
H 13.6150000   13.0970000   22.2880000  
H 18.5230000   13.7190000   22.0240000  
H 18.8950000   16.7900000   21.7520000  
C 16.4220000   12.8390000   22.5650000  
C 17.0700000   12.0470000   21.6490000  
C 17.2720000   10.7400000   21.8350000  
C 16.8480000   10.0730000   23.0160000  
C 16.2760000   10.8610000   24.0030000  
C 16.0140000   12.2150000   23.7300000  
C 17.6750000   12.3710000   20.3600000  
C 18.2540000   11.1970000   19.8820000  
N 17.8860000   10.1150000   20.7420000  
O 19.0490000   12.2850000   17.9610000  
C 18.9250000   11.0700000   18.5600000  
O 19.2050000   10.0110000   17.9970000  
O 15.7980000   10.2390000   25.1000000  
O 15.2240000   12.9230000   24.6310000  
H 17.7750000   13.2830000   19.8380000  
H 19.0470000   12.9980000   18.6320000  
H 18.2070000    9.1840000   20.6070000  
H 15.0760000   10.7930000   25.5570000  
H 15.1060000   13.8230000   24.2540000  
H 16.9860000    9.0400000   23.0800000  
