76
000 
C 14.3400000   23.8940000   18.1960000  
C 14.8380000   23.8790000   16.7750000  
C 15.2310000   22.6700000   16.2520000  
C 15.2950000   21.5120000   17.0510000  
C 14.7170000   21.4060000   18.3200000  
C 14.3930000   22.5460000   18.9480000  
C 15.6380000   22.2840000   14.9220000  
C 15.9170000   20.9430000   15.0530000  
N 15.6910000   20.4790000   16.3820000  
O 16.3700000   20.5290000   12.7390000  
C 16.4280000   20.0660000   13.9820000  
O 16.7770000   18.9650000   14.3020000  
O 13.9050000   22.6420000   20.2190000  
O 13.9060000   24.8550000   18.7820000  
H 14.8110000   24.8040000   16.1920000  
H 15.8590000   22.9110000   14.0580000  
H 15.9940000   21.4340000   12.8300000  
H 13.9450000   21.8340000   20.7490000  
C 14.8010000   20.2470000   19.0960000  
C 15.9950000   19.9930000   19.7720000  
C 16.1140000   18.8800000   20.6080000  
C 15.1010000   17.9160000   20.7670000  
C 13.9160000   18.2480000   20.0740000  
C 13.6970000   19.3690000   19.2960000  
C 17.3090000   20.6540000   19.8640000  
C 18.1010000   19.7590000   20.5680000  
N 17.3730000   18.7310000   21.1000000  
O 20.1790000   21.1060000   20.5620000  
C 19.5600000   19.9880000   21.0290000  
O 20.1110000   19.2320000   21.8730000  
O 12.8130000   17.3960000   20.2790000  
O 12.4710000   19.6520000   18.6910000  
H 17.5730000   21.6060000   19.3380000  
H 19.6000000   21.5320000   19.8520000  
H 17.6100000   18.0010000   21.8190000  
H 13.4060000   16.7070000   20.5620000  
H 11.8580000   18.9980000   19.0500000  
C 15.2150000   16.7100000   21.6250000  
C 15.5780000   16.9590000   22.9260000  
C 15.7710000   15.9370000   23.7830000  
C 15.6130000   14.5660000   23.4310000  
C 15.3610000   14.2920000   22.0940000  
C 15.1180000   15.3820000   21.2040000  
C 15.7970000   18.1230000   23.7210000  
C 16.2030000   17.7240000   24.9210000  
N 16.0620000   16.3290000   25.0280000  
O 16.6260000   19.9710000   25.7250000  
C 16.6490000   18.6580000   26.0290000  
O 16.9480000   18.2050000   27.0460000  
O 15.2530000   13.0290000   21.6140000  
O 14.8100000   15.1390000   19.9330000  
H 15.8510000   19.2110000   23.3390000  
H 16.5430000   19.9230000   24.7680000  
H 16.2480000   15.7680000   25.8480000  
H 15.7280000   12.4590000   22.1740000  
H 14.7750000   14.1800000   19.6430000  
C 15.8480000   13.4440000   24.4480000  
C 15.0960000   13.3320000   25.6100000  
C 15.3570000   12.4080000   26.6060000  
C 16.4040000   11.4930000   26.5040000  
C 17.2090000   11.6210000   25.3060000  
C 16.9980000   12.6920000   24.4280000  
C 13.9820000   14.0820000   26.0810000  
C 13.6730000   13.6120000   27.3450000  
N 14.5620000   12.5910000   27.6740000  
O 11.6880000   14.9850000   27.8440000  
C 12.5920000   14.0580000   28.3140000  
O 12.3500000   13.5990000   29.3640000  
O 18.2280000   10.7370000   25.1850000  
O 17.8650000   12.8350000   23.3970000  
H 13.5050000   14.9030000   25.5150000  
H 12.0310000   15.2900000   27.0130000  
H 14.3920000   11.8770000   28.3770000  
H 18.8430000   10.9820000   24.4700000  
H 17.4850000   13.3330000   22.5960000  
H 16.6380000   10.6800000   27.2020000  
