76
000 
C 18.6430000   22.9860000   17.5870000  
C 17.6070000   23.4950000   16.6740000  
C 16.3150000   23.0840000   16.8570000  
C 15.9320000   22.3050000   17.9140000  
C 16.9110000   21.6010000   18.6820000  
C 18.2290000   21.8910000   18.5120000  
C 15.1460000   23.6560000   16.2500000  
C 14.1400000   23.1070000   17.0230000  
N 14.6170000   22.3270000   18.0670000  
O 12.4010000   24.3100000   15.8740000  
C 12.6870000   23.3170000   16.7770000  
O 11.7580000   22.6960000   17.2100000  
O 19.1760000   21.3110000   19.2850000  
O 19.7730000   23.3470000   17.5050000  
H 18.0310000   24.2390000   16.0200000  
H 15.0880000   24.4300000   15.4450000  
H 13.1900000   24.8880000   15.6980000  
H 18.6690000   20.7880000   19.9110000  
C 16.4510000   20.6270000   19.7220000  
C 15.7120000   19.5510000   19.2960000  
C 15.3450000   18.5860000   20.1290000  
C 15.6590000   18.5150000   21.5310000  
C 16.3770000   19.6870000   21.9980000  
C 16.7730000   20.7030000   21.0900000  
C 15.1370000   19.2780000   17.9920000  
C 14.5150000   18.0270000   18.0930000  
N 14.6280000   17.5970000   19.4100000  
O 13.8270000   17.8580000   15.8090000  
C 13.8100000   17.2890000   17.0650000  
O 13.2840000   16.1740000   17.2460000  
O 16.7600000   19.8890000   23.3020000  
O 17.3090000   21.7860000   21.6110000  
H 15.2350000   19.8590000   17.1030000  
H 14.1290000   18.7720000   15.8480000  
H 14.3200000   16.7040000   19.7470000  
H 16.3000000   19.3360000   23.9990000  
H 17.4560000   21.8170000   22.5850000  
C 15.2860000   17.3980000   22.4440000  
C 16.0440000   16.1870000   22.2920000  
C 15.7440000   15.1450000   23.1070000  
C 14.7640000   15.1080000   24.0950000  
C 13.9160000   16.2570000   24.2000000  
C 14.2410000   17.3950000   23.3970000  
C 17.3090000   15.8600000   21.5220000  
C 17.7370000   14.6480000   22.0980000  
N 16.6410000   14.0900000   22.8940000  
O 19.8330000   14.7710000   20.9510000  
C 19.0000000   14.0000000   21.7250000  
O 19.2100000   12.8220000   22.0050000  
O 12.7850000   16.1520000   24.9540000  
O 13.4670000   18.4830000   23.3540000  
H 17.8120000   16.5160000   20.7920000  
H 19.4250000   15.6490000   20.6840000  
H 16.4670000   13.1170000   23.2000000  
H 12.6060000   15.2400000   25.2390000  
H 12.7470000   18.4150000   24.0050000  
C 14.6870000   13.8680000   24.8900000  
C 14.8970000   13.8570000   26.2730000  
C 15.0940000   12.6880000   26.9700000  
C 14.8850000   11.4970000   26.3400000  
C 14.6490000   11.4580000   24.9790000  
C 14.4530000   12.6190000   24.2400000  
C 15.1030000   14.9620000   27.2060000  
C 15.3080000   14.3170000   28.4670000  
N 15.2350000   12.9090000   28.2900000  
O 15.8390000   16.3700000   29.6560000  
C 15.5670000   15.0420000   29.8160000  
O 15.6390000   14.5290000   30.9110000  
O 14.5050000   10.1770000   24.3450000  
O 13.9300000   12.6100000   22.9800000  
H 15.1110000   16.0440000   27.0250000  
H 15.7700000   16.3820000   28.7170000  
H 15.3490000   12.3380000   29.0210000  
H 14.2220000   10.2980000   23.4050000  
H 14.1140000   13.4330000   22.5700000  
H 14.8320000   10.5260000   26.9780000  
