76
000 
C 18.3550000   20.8310000   15.2010000  
C 17.0590000   21.4070000   14.6540000  
C 15.9350000   21.3360000   15.4810000  
C 15.8170000   20.5790000   16.6500000  
C 16.9950000   19.8320000   17.0780000  
C 18.2210000   19.9540000   16.4430000  
C 14.6380000   21.8630000   15.3020000  
C 13.9150000   21.5390000   16.4640000  
N 14.6420000   20.7140000   17.2450000  
O 12.2100000   23.2590000   16.0640000  
C 12.5890000   22.1450000   16.8530000  
O 11.9240000   21.9520000   17.8640000  
O 19.3460000   19.3820000   16.7730000  
O 19.3620000   20.9680000   14.5410000  
H 17.0730000   21.9680000   13.7690000  
H 14.3530000   22.4080000   14.4780000  
H 12.8690000   23.4810000   15.3530000  
H 19.2810000   18.8060000   17.5800000  
C 16.9170000   19.0880000   18.3550000  
C 16.0300000   17.9580000   18.3830000  
C 15.7750000   17.3850000   19.6300000  
C 16.3010000   17.6950000   20.9120000  
C 17.1510000   18.8410000   20.7990000  
C 17.4450000   19.5460000   19.5970000  
C 15.1250000   17.3830000   17.4170000  
C 14.4130000   16.3990000   18.1160000  
N 14.8610000   16.3930000   19.4480000  
O 12.8150000   15.8610000   16.3900000  
C 13.2100000   15.5790000   17.6770000  
O 12.5930000   14.8680000   18.4720000  
O 17.6790000   19.4410000   21.9380000  
O 18.3330000   20.5700000   19.7300000  
H 15.0820000   17.6040000   16.4040000  
H 13.5300000   16.3910000   15.9750000  
H 14.5390000   15.7610000   20.1880000  
H 17.6320000   18.9020000   22.7250000  
H 18.3930000   20.7800000   20.6720000  
C 16.0270000   17.0480000   22.2100000  
C 16.9870000   16.4540000   23.0230000  
C 16.6380000   15.9070000   24.2100000  
C 15.3720000   15.7380000   24.7310000  
C 14.3890000   16.3710000   23.8890000  
C 14.6880000   17.0070000   22.6240000  
C 18.3820000   16.4380000   22.9000000  
C 18.8870000   15.7360000   24.0230000  
N 17.7830000   15.4080000   24.8510000  
O 21.1710000   16.1910000   23.3850000  
C 20.3400000   15.6730000   24.3530000  
O 20.7990000   15.2280000   25.4260000  
O 13.0440000   16.3650000   24.2360000  
O 13.6850000   17.7300000   21.9760000  
H 18.9030000   16.8990000   22.0410000  
H 20.4770000   16.5460000   22.7720000  
H 17.9040000   15.2260000   25.8560000  
H 12.9740000   15.6900000   24.9380000  
H 13.0310000   18.0810000   22.5990000  
C 14.9970000   15.0310000   25.9880000  
C 14.2240000   15.7540000   26.9270000  
C 13.7880000   15.1730000   28.1070000  
C 14.0610000   13.7970000   28.4890000  
C 14.7680000   13.0890000   27.5420000  
C 15.2270000   13.6820000   26.3120000  
C 13.8570000   17.1660000   26.9630000  
C 13.3960000   17.3750000   28.2430000  
N 13.3760000   16.1880000   28.9310000  
O 12.9540000   19.6450000   27.7690000  
C 12.8480000   18.6700000   28.6700000  
O 12.3970000   18.9330000   29.8320000  
O 15.0830000   11.7260000   27.7830000  
O 15.9300000   12.9330000   25.4180000  
H 13.9810000   17.8830000   26.1550000  
H 13.1720000   19.2270000   26.9300000  
H 13.1160000   16.1110000   29.8960000  
H 15.3970000   11.4120000   26.9900000  
H 15.9900000   13.4430000   24.5420000  
H 14.0100000   13.4910000   29.5130000  
