76
000 
C 18.2040000   12.2850000   17.2000000  
C 18.1550000   12.9750000   15.8340000  
C 17.8210000   14.3280000   15.7010000  
C 17.8310000   15.1890000   16.8020000  
C 17.8020000   14.6230000   18.0990000  
C 18.0210000   13.2880000   18.2790000  
C 17.6270000   15.2170000   14.6570000  
C 17.4310000   16.4980000   15.1540000  
N 17.6370000   16.4510000   16.5980000  
O 17.0140000   17.4490000   13.0570000  
C 17.1170000   17.6900000   14.3790000  
O 16.9860000   18.8130000   14.8000000  
O 17.9350000   12.7050000   19.4840000  
O 18.4950000   11.1150000   17.3660000  
H 18.1910000   12.3580000   14.9280000  
H 17.5700000   14.9440000   13.5920000  
H 17.1220000   16.5380000   13.0250000  
H 17.7640000   13.4070000   20.1240000  
C 17.2680000   15.4710000   19.1450000  
C 15.9170000   15.9050000   19.0980000  
C 15.4300000   16.8030000   20.0310000  
C 16.1200000   17.2380000   21.1520000  
C 17.3900000   16.5770000   21.3840000  
C 17.9330000   15.7020000   20.4100000  
C 14.8520000   15.5850000   18.1820000  
C 13.8680000   16.5580000   18.4560000  
N 14.1390000   17.2830000   19.6400000  
O 12.6680000   16.1260000   16.3900000  
C 12.6970000   16.7940000   17.5880000  
O 11.8970000   17.6530000   17.8930000  
O 18.0820000   16.7910000   22.5650000  
O 19.0590000   15.0740000   20.8160000  
H 14.7830000   14.7580000   17.5450000  
H 13.4200000   15.4930000   16.4570000  
H 13.6820000   17.9710000   20.1750000  
H 17.8540000   17.6770000   22.9470000  
H 19.3470000   15.5390000   21.6130000  
C 15.4860000   18.1650000   22.1170000  
C 14.2920000   17.9200000   22.8690000  
C 14.0160000   18.6260000   23.9870000  
C 14.7090000   19.7600000   24.3830000  
C 15.8210000   20.0950000   23.5520000  
C 16.2620000   19.2360000   22.5200000  
C 13.2930000   16.8880000   22.8690000  
C 12.6160000   16.9270000   24.0750000  
N 13.0180000   18.0990000   24.7450000  
O 11.6240000   14.7470000   23.7520000  
C 11.6830000   15.8920000   24.5680000  
O 10.8960000   16.0470000   25.5180000  
O 16.5180000   21.2570000   23.8680000  
O 17.3670000   19.6310000   21.8240000  
H 13.2300000   16.0670000   22.1930000  
H 12.2560000   14.8640000   23.0600000  
H 12.6670000   18.3830000   25.6660000  
H 16.0340000   21.7540000   24.6380000  
H 17.5270000   20.5710000   22.0360000  
C 14.2920000   20.6040000   25.5690000  
C 15.1560000   20.8410000   26.6760000  
C 14.6900000   21.4830000   27.8310000  
C 13.4580000   22.1510000   27.8690000  
C 12.5800000   21.9810000   26.7110000  
C 12.9890000   21.1750000   25.6340000  
C 16.4760000   20.3630000   26.9070000  
C 16.9060000   20.8350000   28.1810000  
N 15.8170000   21.6150000   28.7100000  
O 19.1520000   20.1660000   27.9810000  
C 18.2590000   20.8040000   28.7540000  
O 18.5890000   21.3500000   29.7990000  
O 11.3720000   22.6560000   26.7590000  
O 12.0630000   21.0600000   24.5930000  
H 17.1290000   19.9230000   26.1170000  
H 18.6650000   20.0780000   27.1330000  
H 15.8670000   21.9590000   29.7070000  
H 10.8910000   22.4840000   25.9370000  
H 12.5940000   20.7070000   23.8760000  
H 13.1460000   22.7130000   28.7520000  
