76
000 
C 14.0630000   15.5400000   14.6250000  
C 15.3050000   14.7140000   14.1940000  
C 16.2970000   14.4760000   15.1180000  
C 16.2060000   14.9330000   16.4520000  
C 15.0370000   15.7230000   16.9200000  
C 13.9930000   15.9580000   16.0600000  
C 17.5220000   13.8480000   14.9510000  
C 18.0760000   13.8930000   16.1980000  
N 17.3070000   14.6430000   17.0720000  
O 20.0190000   12.8730000   15.2980000  
C 19.4570000   13.3950000   16.3950000  
O 20.0810000   13.4200000   17.4420000  
O 12.8130000   16.5050000   16.4240000  
O 13.1160000   15.8000000   13.9230000  
H 15.3100000   14.4470000   13.1360000  
H 17.7510000   13.3100000   14.0960000  
H 19.3750000   13.0060000   14.6060000  
H 12.9570000   16.6910000   17.3800000  
C 15.1470000   16.1820000   18.3200000  
C 16.0850000   17.0940000   18.7990000  
C 16.0920000   17.5050000   20.1070000  
C 15.2470000   16.9410000   21.0810000  
C 14.3520000   15.9560000   20.6700000  
C 14.2790000   15.5960000   19.2760000  
C 17.1750000   17.7880000   18.1120000  
C 17.8520000   18.5390000   19.0610000  
N 17.2200000   18.2800000   20.3090000  
O 19.4810000   19.4240000   17.6390000  
C 18.9990000   19.5110000   18.9000000  
O 19.4470000   20.1990000   19.8400000  
O 13.4900000   15.4170000   21.5060000  
O 13.5870000   14.4510000   18.9720000  
H 17.3110000   17.7160000   17.0670000  
H 18.9440000   18.7460000   17.1760000  
H 17.6520000   18.5220000   21.1690000  
H 13.6680000   15.8550000   22.3350000  
H 13.1700000   14.2090000   19.7790000  
C 15.3840000   17.4520000   22.4980000  
C 15.1980000   18.8000000   22.7830000  
C 15.5010000   19.2540000   24.0560000  
C 15.7860000   18.4230000   25.1360000  
C 15.7780000   17.0570000   24.8650000  
C 15.6900000   16.5620000   23.5560000  
C 14.9160000   20.0000000   22.0050000  
C 15.0600000   21.0930000   22.9090000  
N 15.2630000   20.5790000   24.2120000  
O 14.7750000   22.9270000   21.3260000  
C 14.8620000   22.5720000   22.5860000  
O 14.8170000   23.4020000   23.4580000  
O 15.8670000   16.1910000   25.9190000  
O 15.8480000   15.2120000   23.5230000  
H 14.6450000   20.0340000   20.9840000  
H 14.7520000   22.1120000   20.7520000  
H 15.5470000   21.0720000   25.0130000  
H 15.7700000   16.6360000   26.7680000  
H 16.1760000   14.9430000   24.4170000  
C 15.7660000   18.8450000   26.5680000  
C 14.5430000   19.0430000   27.2650000  
C 14.5710000   19.2660000   28.5600000  
C 15.8550000   19.4370000   29.2830000  
C 17.0200000   19.2640000   28.6050000  
C 16.9970000   18.9980000   27.2280000  
C 13.1430000   19.0970000   26.7520000  
C 12.3630000   19.4370000   27.8710000  
N 13.2410000   19.5110000   28.9450000  
O 10.3740000   19.5030000   26.5870000  
C 10.9410000   19.7380000   27.8200000  
O 10.3170000   20.1190000   28.8190000  
O 18.1560000   19.5750000   29.2430000  
O 18.1770000   18.7620000   26.4870000  
H 12.8800000   18.8860000   25.7120000  
H 11.0470000   19.0580000   26.1530000  
H 12.9850000   19.7860000   29.9230000  
H 18.8670000   19.2220000   28.7080000  
H 17.8480000   18.7610000   25.5700000  
H 15.7390000   19.5730000   30.3410000  
