76
000 
C 13.6000000   21.2430000   28.1230000  
C 14.8320000   21.1390000   28.8850000  
C 16.0360000   20.8010000   28.2560000  
C 16.2040000   20.5270000   26.9100000  
C 14.9750000   20.3940000   26.1510000  
C 13.7400000   20.6550000   26.7710000  
C 17.3310000   20.8040000   28.8550000  
C 18.1550000   20.4980000   27.7960000  
N 17.4450000   20.2980000   26.5870000  
O 19.9460000   20.7430000   29.1550000  
C 19.5660000   20.5260000   27.8890000  
O 20.3820000   20.3940000   26.9770000  
O 12.6030000   20.5330000   26.0800000  
O 12.5320000   21.5790000   28.5770000  
H 14.8110000   21.4320000   29.9240000  
H 17.5050000   21.0060000   29.8580000  
H 19.1290000   20.6950000   29.7170000  
H 12.7430000   20.5460000   25.1060000  
C 15.0570000   19.8090000   24.7960000  
C 15.2670000   18.4750000   24.6440000  
C 15.3940000   17.8410000   23.4450000  
C 15.4260000   18.5290000   22.2110000  
C 15.1270000   19.9070000   22.3270000  
C 14.9350000   20.5660000   23.6000000  
C 15.2920000   17.4430000   25.6420000  
C 15.6880000   16.3060000   24.9260000  
N 15.8290000   16.5690000   23.5650000  
O 15.8570000   15.0410000   26.9880000  
C 16.0590000   15.0460000   25.6610000  
O 16.3950000   14.0320000   25.0940000  
O 15.0090000   20.6230000   21.1570000  
O 14.9760000   21.9180000   23.6510000  
H 15.0930000   17.4760000   26.7110000  
H 15.7370000   15.9920000   27.2030000  
H 15.6120000   15.9020000   22.8640000  
H 15.7220000   20.3140000   20.5990000  
H 14.7510000   22.1540000   22.7330000  
C 15.6910000   17.8220000   20.8910000  
C 14.9770000   16.6430000   20.5430000  
C 15.1170000   15.9430000   19.3670000  
C 16.0910000   16.2800000   18.3970000  
C 16.8170000   17.4660000   18.6410000  
C 16.6010000   18.2220000   19.8530000  
C 13.8010000   16.0530000   21.1820000  
C 13.3550000   15.0040000   20.3220000  
N 14.1550000   14.9710000   19.1930000  
O 11.2520000   14.5390000   21.4660000  
C 12.1170000   14.2280000   20.4690000  
O 11.7700000   13.3630000   19.6650000  
O 17.8000000   17.9630000   17.8460000  
O 17.1790000   19.4740000   20.0250000  
H 13.2190000   16.4250000   21.9920000  
H 11.6990000   15.3640000   21.7320000  
H 13.9450000   14.4060000   18.3770000  
H 17.7550000   17.4660000   17.0180000  
H 17.9280000   19.6030000   19.4120000  
C 16.1790000   15.4550000   17.1510000  
C 15.9160000   15.9940000   15.8840000  
C 15.9380000   15.1660000   14.7760000  
C 16.2370000   13.8080000   14.8790000  
C 16.5450000   13.3010000   16.1190000  
C 16.5420000   14.0940000   17.2700000  
C 15.5750000   17.2820000   15.3560000  
C 15.4600000   17.1860000   13.9900000  
N 15.6130000   15.8510000   13.6350000  
O 15.3210000   19.5890000   13.6860000  
C 15.2870000   18.3500000   13.0510000  
O 15.1420000   18.1660000   11.8700000  
O 16.7640000   11.9420000   16.2070000  
O 17.1390000   13.4940000   18.4030000  
H 15.3250000   18.1030000   15.9810000  
H 15.4870000   19.4830000   14.6090000  
H 15.5930000   15.4870000   12.7090000  
H 17.3660000   11.7900000   16.9910000  
H 16.9070000   13.9460000   19.2110000  
H 16.2630000   13.2020000   13.9560000  
