76
000 
C 15.0050000   21.9150000   15.4820000  
C 15.7530000   23.1330000   15.8980000  
C 16.1810000   23.2720000   17.1870000  
C 15.8770000   22.3240000   18.1930000  
C 15.2060000   21.1290000   17.8910000  
C 14.9000000   20.8860000   16.5640000  
C 16.9300000   24.2690000   17.7520000  
C 17.1500000   23.9310000   19.0460000  
N 16.4850000   22.7150000   19.3210000  
O 18.4840000   25.8600000   19.4320000  
C 17.9810000   24.7290000   19.9820000  
O 18.2820000   24.3510000   21.1520000  
O 14.4760000   19.6760000   16.1380000  
O 14.6640000   21.7390000   14.3390000  
H 16.1190000   23.6810000   15.0920000  
H 17.3100000   25.1830000   17.2970000  
H 17.9780000   26.0570000   18.7430000  
H 14.0930000   19.1390000   16.8770000  
C 15.3380000   20.0100000   18.7940000  
C 14.5970000   19.9280000   19.8920000  
C 14.6550000   18.8820000   20.7560000  
C 15.7400000   18.0020000   20.7850000  
C 16.6110000   18.1000000   19.6620000  
C 16.3260000   19.0410000   18.6460000  
C 13.5290000   20.8500000   20.2780000  
C 13.1850000   20.4540000   21.5190000  
N 13.8790000   19.2440000   21.8310000  
O 11.6870000   22.2050000   22.0930000  
C 12.2520000   21.0670000   22.4720000  
O 11.9260000   20.5950000   23.5660000  
O 17.6050000   17.1770000   19.4890000  
O 17.0420000   19.0110000   17.4810000  
H 13.2210000   21.7190000   19.7200000  
H 11.9840000   22.2250000   21.1290000  
H 13.9900000   18.8430000   22.7430000  
H 17.6410000   16.6670000   20.3400000  
H 17.7980000   18.5120000   17.6970000  
C 15.9630000   16.9910000   21.8610000  
C 14.8220000   16.2580000   22.2620000  
C 14.8490000   15.4330000   23.3620000  
C 16.0440000   15.3180000   24.1570000  
C 17.1770000   16.1710000   23.8410000  
C 17.0290000   17.0860000   22.8130000  
C 13.4780000   16.1050000   21.7700000  
C 12.7880000   15.2020000   22.5900000  
N 13.6800000   14.7860000   23.6140000  
O 10.7710000   15.3200000   21.4180000  
C 11.4030000   14.8480000   22.4630000  
O 10.8530000   14.0940000   23.2510000  
O 18.3720000   16.1750000   24.5700000  
O 18.0260000   17.9860000   22.5900000  
H 13.0680000   16.4520000   20.8750000  
H 11.4550000   15.6340000   20.7420000  
H 13.4890000   14.0430000   24.3330000  
H 18.3790000   15.5580000   25.3000000  
H 18.5000000   17.9660000   23.4270000  
C 16.1510000   14.2580000   25.2820000  
C 16.8930000   13.0890000   25.0130000  
C 16.8760000   12.1310000   25.9800000  
C 16.2610000   12.2410000   27.2130000  
C 15.6150000   13.4290000   27.5020000  
C 15.3790000   14.3820000   26.5130000  
C 17.5820000   12.6170000   23.8370000  
C 18.0210000   11.3310000   24.2490000  
N 17.6670000   11.0660000   25.5780000  
O 18.9370000   10.6490000   22.1680000  
C 18.7940000   10.3210000   23.4710000  
O 19.1870000    9.2940000   23.9380000  
O 15.0790000   13.5490000   28.7620000  
O 14.6760000   15.5440000   26.8390000  
H 17.6860000   13.1010000   22.8380000  
H 18.6200000   11.5310000   22.0470000  
H 17.8260000   10.1720000   26.0390000  
H 14.2130000   13.9050000   28.8180000  
H 14.6110000   16.0620000   26.0430000  
H 16.2640000   11.4350000   27.9410000  
