76
000 
C 14.5830000   18.3840000   14.0500000  
C 15.5070000   17.3020000   13.5720000  
C 16.1430000   16.5240000   14.4270000  
C 16.1540000   16.7340000   15.8100000  
C 15.2900000   17.6940000   16.3970000  
C 14.5480000   18.4860000   15.5490000  
C 17.0380000   15.4000000   14.2880000  
C 17.3390000   14.9870000   15.5860000  
N 16.7200000   15.7660000   16.5370000  
O 18.6880000   13.1800000   14.7490000  
C 18.1990000   13.8080000   15.8700000  
O 18.5660000   13.5110000   17.0320000  
O 13.7060000   19.4810000   15.9830000  
O 14.0430000   19.1990000   13.3500000  
H 15.5610000   17.0270000   12.5870000  
H 17.3430000   14.9000000   13.3780000  
H 18.3990000   13.7270000   13.9930000  
H 13.7300000   19.3700000   16.9240000  
C 15.2530000   17.6980000   17.8770000  
C 15.9990000   18.5570000   18.6230000  
C 16.0500000   18.4440000   19.9880000  
C 15.3080000   17.5520000   20.7290000  
C 14.3790000   16.7520000   19.9790000  
C 14.4130000   16.7600000   18.5850000  
C 17.0940000   19.3930000   18.2490000  
C 17.7200000   19.8520000   19.4240000  
N 17.0110000   19.2910000   20.5430000  
O 19.2510000   21.1550000   18.2990000  
C 18.9060000   20.6700000   19.4910000  
O 19.4070000   21.0950000   20.5310000  
O 13.4160000   15.9300000   20.6160000  
O 13.5480000   15.9840000   17.8960000  
H 17.4540000   19.5800000   17.2010000  
H 18.6140000   20.6900000   17.7390000  
H 17.0710000   19.5890000   21.4620000  
H 13.3420000   16.3280000   21.5130000  
H 13.2970000   15.1830000   18.4940000  
C 15.3480000   17.3560000   22.2160000  
C 14.9130000   18.4100000   23.0420000  
C 15.1080000   18.2400000   24.3700000  
C 15.5770000   17.0790000   25.0530000  
C 15.8790000   15.9700000   24.2000000  
C 15.7800000   16.1350000   22.7850000  
C 14.6640000   19.8010000   22.8640000  
C 14.5670000   20.3610000   24.1170000  
N 14.9610000   19.4070000   25.0520000  
O 13.9510000   22.5860000   23.3630000  
C 14.4330000   21.8080000   24.4210000  
O 14.5730000   22.2240000   25.5420000  
O 16.4860000   14.8270000   24.6960000  
O 16.1850000   15.1020000   22.0690000  
H 14.4060000   20.3940000   21.9800000  
H 13.8320000   21.8950000   22.7380000  
H 15.2320000   19.5270000   26.0040000  
H 16.3980000   15.0020000   25.6590000  
H 16.1990000   14.2790000   22.5650000  
C 15.9050000   16.9720000   26.4710000  
C 14.8730000   17.1820000   27.4170000  
C 15.0640000   17.0080000   28.7600000  
C 16.2500000   16.6830000   29.3380000  
C 17.3030000   16.4580000   28.4100000  
C 17.1020000   16.5860000   27.0120000  
C 13.5630000   17.6170000   27.2760000  
C 12.9560000   17.6040000   28.5600000  
N 13.9050000   17.1950000   29.4940000  
O 10.9390000   18.5650000   27.8200000  
C 11.5890000   18.0260000   28.8750000  
O 10.9460000   17.8680000   29.8880000  
O 18.5850000   16.1030000   28.8190000  
O 18.2410000   16.4810000   26.2900000  
H 13.0860000   17.9520000   26.3440000  
H 11.5850000   18.8990000   27.2650000  
H 13.6870000   17.2070000   30.4970000  
H 19.1980000   16.1170000   28.0140000  
H 18.1370000   16.8010000   25.3870000  
H 16.4310000   16.5500000   30.4450000  
