76
000 
C 18.8080000   14.9130000   15.3220000  
C 18.3540000   13.4930000   15.3140000  
C 17.3470000   13.1130000   16.1520000  
C 16.6600000   14.0140000   16.9910000  
C 17.2990000   15.2440000   17.2560000  
C 18.3820000   15.6330000   16.5250000  
C 16.7590000   11.8470000   16.3310000  
C 15.7570000   12.1100000   17.2410000  
N 15.7220000   13.4500000   17.6680000  
O 15.0760000    9.8840000   17.3380000  
C 14.9800000   11.0570000   17.9170000  
O 14.3400000   11.2190000   18.9440000  
O 18.9590000   16.8120000   16.6540000  
O 19.4650000   15.4040000   14.4380000  
H 18.7460000   12.8570000   14.5560000  
H 17.0390000   10.9210000   15.9550000  
H 15.3530000   10.0570000   16.3990000  
H 18.2640000   17.1470000   17.2780000  
C 16.6970000   16.0770000   18.3130000  
C 16.7400000   15.7350000   19.6710000  
C 16.0950000   16.3860000   20.6990000  
C 15.2780000   17.5140000   20.4640000  
C 15.1540000   17.8720000   19.0870000  
C 15.7590000   17.1470000   18.0440000  
C 17.4630000   14.7110000   20.3130000  
C 17.1980000   14.8060000   21.7150000  
N 16.4140000   15.9110000   21.9620000  
O 18.5570000   12.9940000   22.2310000  
C 17.8040000   13.9460000   22.7640000  
O 17.7280000   14.0940000   23.9640000  
O 14.2800000   18.8460000   18.7720000  
O 15.5010000   17.3810000   16.6600000  
H 18.0640000   13.9280000   19.8540000  
H 18.2670000   13.0790000   21.3150000  
H 15.9970000   16.1420000   22.8280000  
H 13.6230000   19.0680000   19.4630000  
H 14.8080000   18.0570000   16.5900000  
C 14.6510000   18.2660000   21.6100000  
C 15.4590000   18.8290000   22.6810000  
C 14.9420000   19.4450000   23.8030000  
C 13.6040000   19.8260000   23.9530000  
C 12.7800000   19.3420000   22.8790000  
C 13.2450000   18.5310000   21.7840000  
C 16.8980000   18.7480000   22.9730000  
C 17.1210000   19.1350000   24.2350000  
N 15.9540000   19.7040000   24.7200000  
O 19.4430000   18.6010000   24.3360000  
C 18.4390000   19.2260000   24.9210000  
O 18.5630000   19.7640000   25.9940000  
O 11.4300000   19.5570000   22.9390000  
O 12.2790000   17.8450000   21.0220000  
H 17.6640000   18.4700000   22.2460000  
H 19.2490000   18.6720000   23.3560000  
H 15.9160000   20.3450000   25.5390000  
H 11.2560000   20.1480000   23.7670000  
H 11.3970000   18.0600000   21.2710000  
C 13.1210000   20.5700000   25.1970000  
C 13.6200000   21.8000000   25.5610000  
C 13.2690000   22.4620000   26.6710000  
C 12.2040000   21.9960000   27.4670000  
C 11.6230000   20.7560000   27.1180000  
C 12.0080000   20.0480000   25.9760000  
C 14.6130000   22.6030000   24.8760000  
C 14.9570000   23.6540000   25.7350000  
N 13.9210000   23.6380000   26.7080000  
O 16.9940000   24.2980000   24.6290000  
C 16.0910000   24.5880000   25.5770000  
O 16.3260000   25.5600000   26.2690000  
O 10.7110000   20.1460000   28.0280000  
O 11.5780000   18.7240000   25.8210000  
H 15.0330000   22.2930000   23.8560000  
H 16.5460000   23.4880000   24.3260000  
H 13.8080000   24.3450000   27.4410000  
H 10.2970000   19.3160000   27.6470000  
H 12.1480000   18.3160000   25.0550000  
H 11.9980000   22.4340000   28.4460000  
