76
000 
C 14.0940000   13.4580000   27.5060000  
C 15.3100000   13.1960000   28.2370000  
C 16.4860000   13.7670000   27.8500000  
C 16.6270000   14.4900000   26.6760000  
C 15.4700000   14.8340000   25.9140000  
C 14.2030000   14.4540000   26.3260000  
C 17.7670000   13.6000000   28.4570000  
C 18.5820000   14.3380000   27.6370000  
N 17.8920000   14.8270000   26.5180000  
O 20.5220000   14.0130000   28.9030000  
C 20.0750000   14.6010000   27.7880000  
O 20.7710000   15.2870000   27.0430000  
O 13.0720000   14.9110000   25.7610000  
O 13.0970000   12.9230000   27.8700000  
H 15.2390000   12.5710000   29.0780000  
H 17.9700000   13.0450000   29.3920000  
H 19.7640000   13.8040000   29.3770000  
H 13.2950000   15.7360000   25.2290000  
C 15.6920000   15.7740000   24.8030000  
C 16.4640000   15.4330000   23.6580000  
C 16.4190000   16.2380000   22.5680000  
C 15.7440000   17.4640000   22.4620000  
C 15.3290000   17.9740000   23.7510000  
C 15.1760000   17.0890000   24.8800000  
C 17.2190000   14.2880000   23.2610000  
C 17.7410000   14.5180000   21.9880000  
N 17.2180000   15.7500000   21.5620000  
O 18.5400000   12.4120000   21.6860000  
C 18.5590000   13.6400000   21.1600000  
O 19.1650000   13.8440000   20.1030000  
O 14.7980000   19.2700000   23.8120000  
O 14.5450000   17.5370000   26.0480000  
H 17.1760000   13.3440000   23.7270000  
H 18.0100000   12.4180000   22.4640000  
H 17.4670000   16.2060000   20.6710000  
H 14.9830000   19.6380000   22.9340000  
H 14.1380000   18.4380000   25.9370000  
C 15.7480000   18.3230000   21.1930000  
C 15.2950000   17.8770000   19.9730000  
C 15.2130000   18.6730000   18.8840000  
C 15.5800000   20.0550000   18.8290000  
C 16.1380000   20.5210000   20.0160000  
C 16.2700000   19.6400000   21.1460000  
C 14.6880000   16.5910000   19.6090000  
C 14.1410000   16.7440000   18.3410000  
N 14.4480000   18.0120000   17.9080000  
O 12.9800000   14.7630000   18.2840000  
C 13.3870000   15.7950000   17.5160000  
O 13.0440000   15.9960000   16.3860000  
O 16.6520000   21.7840000   20.0110000  
O 17.0840000   19.9580000   22.1900000  
H 14.4980000   15.7030000   20.2150000  
H 13.2430000   15.0660000   19.1570000  
H 14.4030000   18.3200000   16.9630000  
H 16.6600000   22.0000000   19.0410000  
H 17.2880000   20.9460000   22.1050000  
C 15.3020000   20.9400000   17.6140000  
C 14.5230000   22.1140000   17.7340000  
C 14.1940000   22.7870000   16.5690000  
C 14.7210000   22.4480000   15.2720000  
C 15.5530000   21.2850000   15.1560000  
C 15.8130000   20.5870000   16.3780000  
C 13.8240000   22.7340000   18.8090000  
C 12.9810000   23.7380000   18.2490000  
N 13.3720000   23.8300000   16.9310000  
O 11.4220000   23.7840000   20.0930000  
C 11.7560000   24.3210000   18.8600000  
O 11.0920000   25.1530000   18.2940000  
O 16.1320000   21.0050000   13.9920000  
O 16.4960000   19.4330000   16.2890000  
H 13.7300000   22.1710000   19.7540000  
H 12.1280000   23.1590000   20.2940000  
H 13.0230000   24.5760000   16.2990000  
H 16.6700000   20.2980000   14.2010000  
H 16.5090000   18.8620000   17.0810000  
H 14.5390000   23.0560000   14.4090000  
