76
000 
C 18.0180000   19.5970000   28.4390000  
C 17.7820000   18.4710000   29.3320000  
C 17.4820000   17.2810000   28.7730000  
C 17.2700000   17.0950000   27.4200000  
C 17.4260000   18.1800000   26.5070000  
C 17.7650000   19.4060000   27.0290000  
C 17.1740000   16.0440000   29.3150000  
C 16.9820000   15.1780000   28.2270000  
N 16.9570000   15.8950000   27.0260000  
O 16.3910000   13.2890000   29.6730000  
C 16.5170000   13.7570000   28.3930000  
O 16.1990000   13.1090000   27.4520000  
O 17.7570000   20.5550000   26.3020000  
O 18.4310000   20.6670000   28.8950000  
H 18.0630000   18.6300000   30.4170000  
H 17.1260000   15.7990000   30.4030000  
H 16.6060000   14.0530000   30.2470000  
H 17.7600000   20.3310000   25.3580000  
C 17.0740000   17.9410000   25.1010000  
C 15.7690000   17.6090000   24.6150000  
C 15.4230000   17.5220000   23.3590000  
C 16.3930000   17.6460000   22.3570000  
C 17.6990000   17.9150000   22.7550000  
C 18.0210000   18.1180000   24.0780000  
C 14.6110000   17.6000000   25.4700000  
C 13.5070000   17.5160000   24.6300000  
N 14.0530000   17.3840000   23.3020000  
O 11.8270000   17.7330000   26.3790000  
C 12.0890000   17.4090000   25.1250000  
O 11.1980000   17.1610000   24.3330000  
O 18.7170000   18.0100000   21.8110000  
O 19.3710000   18.4170000   24.4280000  
H 14.5730000   17.8520000   26.5140000  
H 12.6530000   18.0200000   26.8150000  
H 13.4480000   17.2650000   22.4560000  
H 18.3180000   17.7930000   20.9660000  
H 20.0070000   18.4470000   23.6630000  
C 15.9580000   17.5420000   20.8870000  
C 15.6230000   18.7000000   20.2070000  
C 14.9690000   18.6270000   19.0520000  
C 14.6640000   17.4080000   18.3970000  
C 15.1080000   16.2400000   18.9800000  
C 15.6840000   16.2860000   20.2960000  
C 15.6420000   20.1370000   20.4710000  
C 15.2540000   20.7800000   19.3020000  
N 14.7760000   19.8350000   18.4190000  
O 15.9390000   22.8900000   20.0770000  
C 15.2640000   22.2870000   19.1440000  
O 14.6890000   22.8680000   18.1900000  
O 14.7530000   15.0890000   18.3500000  
O 15.8390000   15.0960000   20.9680000  
H 15.8430000   20.5730000   21.4330000  
H 16.2980000   22.2660000   20.7100000  
H 14.2780000   19.9880000   17.5460000  
H 14.5900000   15.3820000   17.3990000  
H 15.4610000   14.3490000   20.4130000  
C 13.9950000   17.4060000   17.0460000  
C 14.6620000   16.9690000   15.9170000  
C 14.0490000   17.1600000   14.6410000  
C 12.7890000   17.7450000   14.4890000  
C 12.0420000   18.0300000   15.6240000  
C 12.6890000   17.9490000   16.8850000  
C 15.9610000   16.3440000   15.6740000  
C 16.0260000   16.2120000   14.2830000  
N 14.8460000   16.7020000   13.6500000  
O 18.4300000   15.8850000   14.3060000  
C 17.3170000   15.8760000   13.5240000  
O 17.3150000   15.7620000   12.3090000  
O 10.7170000   18.2990000   15.4270000  
O 11.9520000   18.5770000   17.8970000  
H 16.7300000   16.2030000   16.3700000  
H 18.0780000   16.1180000   15.1750000  
H 14.7670000   16.7410000   12.7080000  
H 10.2010000   18.3520000   16.2410000  
H 12.5600000   18.6500000   18.6770000  
H 12.4090000   17.8600000   13.4970000  
