76
000 
C 14.4540000   24.6110000   18.6460000  
C 14.8230000   24.2940000   17.2780000  
C 15.1200000   23.0340000   16.8040000  
C 15.2300000   21.9740000   17.6930000  
C 14.7800000   22.1950000   19.0490000  
C 14.5000000   23.4500000   19.5430000  
C 15.5190000   22.5300000   15.5170000  
C 15.5950000   21.1440000   15.6670000  
N 15.4620000   20.8480000   17.0670000  
O 16.0190000   20.7090000   13.3270000  
C 15.8500000   20.1710000   14.5630000  
O 15.9260000   18.9700000   14.7160000  
O 14.2190000   23.7250000   20.8320000  
O 14.1410000   25.7570000   18.9230000  
H 14.8660000   25.0400000   16.5050000  
H 15.5570000   23.1370000   14.5930000  
H 16.1770000   21.6670000   13.4830000  
H 14.5460000   22.9860000   21.3830000  
C 14.8150000   21.0170000   19.8690000  
C 16.0330000   20.4770000   20.3840000  
C 16.0660000   19.3230000   20.9880000  
C 14.9540000   18.4880000   21.2750000  
C 13.7330000   19.0070000   20.8710000  
C 13.6030000   20.2660000   20.1550000  
C 17.3290000   21.0620000   20.3440000  
C 18.1480000   20.0710000   20.7590000  
N 17.3740000   19.0480000   21.3750000  
O 20.1400000   21.1130000   20.1980000  
C 19.6120000   20.1130000   20.9420000  
O 20.2980000   19.3380000   21.6050000  
O 12.5810000   18.3260000   21.3600000  
O 12.3610000   20.7580000   19.8290000  
H 17.5840000   22.0050000   19.7780000  
H 19.3250000   21.3080000   19.6400000  
H 17.6370000   18.1360000   21.6660000  
H 12.8220000   17.3960000   21.6560000  
H 11.7350000   20.0300000   19.7610000  
C 15.0800000   17.1390000   21.9470000  
C 15.5130000   16.9820000   23.2690000  
C 15.6820000   15.7450000   23.7740000  
C 15.5680000   14.5600000   23.0360000  
C 15.1560000   14.6450000   21.6840000  
C 14.8620000   15.9360000   21.1710000  
C 16.0530000   17.8880000   24.2940000  
C 16.4860000   17.0870000   25.3100000  
N 16.2620000   15.7090000   25.0020000  
O 17.3100000   18.9510000   26.6340000  
C 17.2200000   17.5610000   26.5300000  
O 17.5940000   16.8580000   27.4430000  
O 14.9480000   13.5430000   20.9180000  
O 14.5240000   16.0160000   19.8720000  
H 16.1230000   19.0380000   24.2160000  
H 17.0420000   19.3160000   25.7690000  
H 16.5410000   14.8940000   25.5720000  
H 15.2120000   12.7960000   21.4030000  
H 14.6910000   15.2000000   19.3170000  
C 15.9880000   13.2900000   23.6880000  
C 15.2060000   12.8050000   24.7480000  
C 15.4830000   11.5820000   25.3250000  
C 16.4690000   10.6550000   24.9050000  
C 17.2950000   11.1820000   23.9100000  
C 17.0360000   12.4540000   23.2910000  
C 14.0990000   13.3730000   25.4370000  
C 13.6770000   12.4020000   26.3700000  
N 14.5670000   11.3320000   26.3040000  
O 11.9210000   13.6710000   27.2730000  
C 12.5750000   12.5400000   27.3460000  
O 12.2490000   11.7260000   28.1960000  
O 18.4150000   10.4270000   23.5280000  
O 17.8370000   12.7910000   22.3120000  
H 13.6820000   14.3860000   25.3170000  
H 12.3050000   14.0550000   26.5340000  
H 14.4460000   10.4820000   26.8560000  
H 18.9390000   10.7680000   22.7850000  
H 17.2270000   13.5020000   21.9670000  
H 16.5780000    9.7390000   25.4970000  
