76
000 
C 18.6950000   18.8470000   14.9110000  
C 17.5570000   18.7370000   13.9150000  
C 16.2730000   18.6260000   14.4510000  
C 16.0080000   18.5980000   15.7920000  
C 17.0370000   18.6750000   16.7750000  
C 18.3600000   18.8450000   16.3450000  
C 15.0090000   18.5980000   13.8020000  
C 14.0650000   18.3490000   14.8000000  
N 14.7360000   18.4780000   16.0280000  
O 12.3030000   17.9430000   13.3360000  
C 12.6310000   18.2470000   14.5790000  
O 11.7920000   18.2930000   15.4680000  
O 19.3810000   18.9400000   17.2000000  
O 19.8460000   18.9130000   14.5870000  
H 17.6520000   18.7800000   12.8460000  
H 14.8970000   18.6180000   12.6840000  
H 13.1110000   18.1450000   12.8600000  
H 18.9500000   18.9520000   18.0910000  
C 16.6770000   18.4940000   18.1770000  
C 16.4250000   17.2070000   18.6900000  
C 16.0360000   16.9910000   19.9830000  
C 15.8850000   17.9830000   20.9330000  
C 16.2720000   19.2940000   20.4420000  
C 16.6510000   19.5550000   19.1290000  
C 16.4940000   15.9240000   18.0630000  
C 16.0630000   14.9810000   18.9730000  
N 15.9330000   15.6440000   20.2380000  
O 15.9800000   13.3000000   17.2970000  
C 15.8630000   13.5930000   18.6060000  
O 15.6090000   12.7350000   19.4480000  
O 16.1730000   20.3370000   21.2800000  
O 16.9240000   20.8410000   18.8170000  
H 16.7160000   15.6010000   17.0640000  
H 15.8150000   14.1570000   16.9010000  
H 15.6740000   15.2830000   21.1390000  
H 15.8250000   19.8190000   22.0370000  
H 16.4440000   21.5170000   19.2300000  
C 15.4990000   17.6530000   22.3360000  
C 16.3360000   16.9850000   23.2200000  
C 15.8720000   16.6560000   24.4710000  
C 14.7010000   17.0910000   25.0440000  
C 13.8370000   17.8390000   24.1300000  
C 14.2500000   18.0810000   22.7830000  
C 17.7210000   16.5700000   23.2310000  
C 17.9900000   16.1540000   24.5170000  
N 16.8430000   16.1480000   25.3210000  
O 20.2920000   16.3170000   24.2790000  
C 19.3110000   15.9790000   25.0760000  
O 19.4910000   15.4550000   26.1470000  
O 12.5670000   18.1330000   24.6200000  
O 13.3020000   18.6610000   21.9980000  
H 18.5450000   16.7470000   22.5110000  
H 19.8940000   16.5670000   23.4180000  
H 16.7780000   15.9160000   26.3130000  
H 12.5090000   17.8120000   25.5710000  
H 12.6310000   18.9020000   22.6690000  
C 14.3830000   16.8890000   26.4850000  
C 14.1390000   18.0260000   27.3140000  
C 13.7200000   17.9720000   28.6100000  
C 13.5360000   16.8370000   29.2660000  
C 13.7380000   15.6430000   28.5510000  
C 14.2180000   15.6640000   27.1930000  
C 14.3250000   19.4070000   27.0460000  
C 14.0560000   20.1740000   28.2110000  
N 13.5840000   19.2640000   29.1450000  
O 14.5600000   22.3470000   27.4440000  
C 14.1370000   21.6240000   28.4660000  
O 13.8080000   22.1180000   29.5820000  
O 13.3690000   14.4350000   29.1730000  
O 14.4390000   14.4020000   26.5310000  
H 14.8400000   19.8310000   26.1130000  
H 14.5970000   21.6950000   26.7840000  
H 13.2910000   19.4040000   30.0680000  
H 13.3750000   13.6090000   28.5700000  
H 14.6170000   14.5330000   25.6000000  
H 13.2730000   16.8510000   30.4000000  
