76
000 
C 13.1320000   23.8090000   24.8430000  
C 14.1000000   24.4090000   25.7750000  
C 15.2710000   23.7070000   26.0170000  
C 15.6560000   22.5190000   25.3740000  
C 14.7610000   21.9440000   24.4190000  
C 13.5260000   22.5620000   24.1250000  
C 16.3290000   24.0000000   26.8860000  
C 17.2680000   22.9590000   26.6610000  
N 16.8090000   22.0630000   25.7020000  
O 18.7770000   23.9780000   28.1810000  
C 18.6040000   22.9050000   27.3890000  
O 19.4720000   22.0800000   27.2470000  
O 12.6400000   22.2200000   23.1870000  
O 12.0870000   24.3770000   24.5430000  
H 13.8670000   25.3260000   26.2450000  
H 16.3630000   24.8570000   27.5530000  
H 18.0570000   24.7030000   28.2280000  
H 13.1410000   21.5660000   22.7620000  
C 15.1110000   20.8100000   23.5630000  
C 15.2680000   19.5280000   24.0250000  
C 15.5350000   18.5130000   23.1940000  
C 15.7320000   18.5970000   21.8060000  
C 15.7220000   19.9170000   21.2610000  
C 15.3540000   21.0260000   22.1680000  
C 15.1780000   19.0050000   25.3870000  
C 15.3970000   17.6290000   25.2430000  
N 15.6230000   17.3500000   23.8480000  
O 15.6820000   17.2690000   27.4450000  
C 15.7300000   16.6420000   26.2840000  
O 16.2370000   15.5820000   26.1030000  
O 16.0300000   20.1670000   19.9610000  
O 15.6520000   22.3170000   21.7180000  
H 15.1560000   19.5220000   26.3250000  
H 15.2150000   18.1150000   27.2870000  
H 15.7590000   16.4660000   23.4750000  
H 16.3990000   19.3410000   19.5390000  
H 15.6020000   22.1940000   20.7330000  
C 16.0180000   17.3120000   21.0600000  
C 14.9760000   16.3480000   20.9370000  
C 15.1270000   15.1490000   20.2760000  
C 16.2910000   14.7850000   19.5310000  
C 17.3280000   15.7360000   19.5780000  
C 17.2390000   16.9500000   20.3400000  
C 13.6270000   16.2890000   21.4470000  
C 13.0120000   15.0660000   21.0600000  
N 14.0000000   14.3530000   20.4240000  
O 10.8280000   15.5990000   21.8020000  
C 11.5950000   14.6770000   21.2100000  
O 11.1670000   13.5490000   20.9600000  
O 18.5170000   15.4730000   18.8600000  
O 18.3120000   17.7760000   20.3220000  
H 13.0550000   17.1000000   21.8820000  
H 11.3690000   16.3470000   22.1330000  
H 13.8930000   13.4560000   19.9300000  
H 18.1820000   14.7760000   18.2340000  
H 19.0440000   17.2550000   19.9540000  
C 16.4160000   13.5460000   18.7430000  
C 16.3790000   13.6550000   17.3150000  
C 16.4300000   12.4840000   16.5550000  
C 16.6120000   11.2200000   17.0900000  
C 16.7690000   11.0800000   18.4720000  
C 16.6320000   12.2500000   19.2750000  
C 15.9580000   14.7110000   16.3930000  
C 16.0200000   14.1710000   15.1480000  
N 16.3620000   12.8160000   15.2260000  
O 15.5960000   16.1780000   13.9130000  
C 15.8290000   14.8760000   13.8080000  
O 15.9910000   14.3970000   12.7580000  
O 17.0130000    9.7980000   19.0300000  
O 16.9330000   12.2450000   20.5910000  
H 15.7130000   15.7010000   16.7250000  
H 15.5340000   16.3370000   14.9180000  
H 16.6130000   12.2080000   14.4580000  
H 17.1540000    9.9360000   19.9550000  
H 17.2570000   13.1370000   20.8070000  
H 16.7850000   10.4180000   16.4430000  
