76
000 
C 18.2770000   24.2590000   23.0470000  
C 17.2600000   25.2090000   23.6050000  
C 16.1460000   24.6300000   24.2380000  
C 15.8360000   23.3010000   24.1750000  
C 16.7810000   22.3550000   23.6370000  
C 17.9820000   22.7660000   23.1240000  
C 14.9940000   25.2820000   24.7020000  
C 14.1050000   24.2380000   24.8820000  
N 14.6360000   22.9990000   24.5570000  
O 12.3650000   25.5990000   25.8120000  
C 12.7000000   24.3620000   25.4020000  
O 11.9010000   23.4790000   25.5300000  
O 18.8320000   21.8930000   22.4830000  
O 19.2830000   24.7260000   22.5230000  
H 17.4780000   26.2540000   23.5610000  
H 14.9460000   26.3380000   24.9080000  
H 13.0180000   26.3140000   25.7820000  
H 18.6560000   21.0100000   22.8530000  
C 16.4070000   20.9180000   23.4130000  
C 15.8080000   20.6100000   22.1710000  
C 15.4210000   19.3500000   21.8110000  
C 15.6670000   18.2130000   22.6160000  
C 16.4380000   18.5240000   23.8340000  
C 16.8260000   19.8400000   24.2130000  
C 15.1940000   21.4240000   21.1260000  
C 14.5590000   20.6350000   20.1940000  
N 14.7140000   19.3410000   20.5980000  
O 13.5520000   22.3420000   18.9650000  
C 13.7700000   21.0140000   19.0350000  
O 13.3460000   20.2230000   18.2170000  
O 16.9510000   17.4040000   24.5410000  
O 17.5770000   20.0230000   25.2670000  
H 15.1940000   22.5090000   21.1170000  
H 14.0330000   22.5930000   19.7740000  
H 14.4240000   18.5220000   20.0740000  
H 16.6450000   16.6220000   24.0120000  
H 18.0870000   19.2400000   25.4860000  
C 15.2590000   16.7880000   22.3310000  
C 15.6950000   16.2610000   21.0850000  
C 15.4480000   14.9490000   20.7650000  
C 14.6910000   14.0480000   21.5820000  
C 14.2000000   14.5680000   22.8610000  
C 14.5850000   15.9140000   23.2250000  
C 16.5200000   16.7770000   20.0290000  
C 16.5820000   15.7090000   19.0930000  
N 15.8610000   14.6110000   19.4750000  
O 17.8940000   16.9920000   17.4210000  
C 17.3110000   15.8020000   17.7540000  
O 17.3690000   14.8770000   16.9690000  
O 13.4960000   13.8130000   23.6800000  
O 14.2350000   16.2380000   24.4980000  
H 16.9840000   17.7220000   19.9170000  
H 17.5870000   17.6810000   18.0120000  
H 15.8950000   13.6890000   19.0140000  
H 13.5490000   12.8740000   23.3900000  
H 14.0590000   15.3970000   24.9030000  
C 14.4290000   12.7340000   20.9710000  
C 15.5130000   11.8370000   20.6810000  
C 15.2880000   10.6940000   19.9960000  
C 14.0030000   10.3640000   19.5160000  
C 12.8940000   11.2100000   19.8410000  
C 13.1270000   12.4310000   20.4920000  
C 16.9280000   11.9830000   20.7310000  
C 17.5380000   10.9570000   19.9690000  
N 16.4800000   10.1040000   19.6530000  
O 19.9160000   11.5190000   19.8910000  
C 18.9430000   10.6620000   19.5520000  
O 19.2140000    9.6500000   18.9290000  
O 11.6970000   10.7920000   19.4020000  
O 12.0680000   13.3210000   20.6390000  
H 17.3950000   12.8130000   21.2980000  
H 19.5320000   12.3400000   20.2670000  
H 16.6600000    9.5670000   18.7980000  
H 11.1210000   11.2800000   19.9020000  
H 11.9810000   13.7760000   21.5220000  
H 13.8300000    9.4540000   18.9210000  
