76
000 
C 18.6440000   22.5900000   26.5760000  
C 17.6930000   22.6550000   27.7100000  
C 16.7710000   21.6530000   27.8300000  
C 16.5620000   20.6160000   26.9170000  
C 17.4320000   20.4680000   25.7550000  
C 18.4430000   21.3940000   25.6220000  
C 15.6900000   21.5420000   28.7250000  
C 14.9530000   20.4110000   28.3200000  
N 15.4720000   19.8320000   27.1720000  
O 13.4900000   20.6640000   30.1320000  
C 13.7650000   19.9840000   29.0280000  
O 13.0500000   19.0700000   28.6410000  
O 19.3160000   21.4020000   24.5750000  
O 19.5590000   23.4350000   26.5290000  
H 17.7510000   23.4820000   28.4150000  
H 15.3700000   22.2300000   29.5190000  
H 14.1400000   21.4100000   30.3040000  
H 19.0030000   20.6700000   24.0680000  
C 17.0510000   19.5060000   24.6450000  
C 15.9600000   19.6930000   23.8280000  
C 15.6580000   18.8330000   22.8500000  
C 16.3350000   17.6540000   22.5890000  
C 17.4090000   17.3580000   23.4090000  
C 17.7640000   18.3130000   24.4500000  
C 14.8130000   20.6010000   23.9230000  
C 13.9330000   20.2540000   22.9440000  
N 14.4890000   19.1770000   22.2230000  
O 12.3420000   21.7970000   23.6040000  
C 12.6390000   20.8250000   22.7930000  
O 11.8370000   20.4570000   21.9550000  
O 18.1920000   16.2460000   23.2430000  
O 18.8160000   18.0610000   25.4080000  
H 14.6770000   21.3050000   24.7000000  
H 13.2030000   22.0680000   23.9550000  
H 14.1360000   18.7830000   21.3840000  
H 18.1200000   15.8240000   22.3730000  
H 19.2200000   17.1940000   25.2150000  
C 15.9310000   16.7680000   21.4410000  
C 16.0080000   17.1650000   20.0510000  
C 15.3900000   16.4440000   19.0620000  
C 14.9180000   15.1570000   19.1590000  
C 14.9690000   14.6650000   20.4880000  
C 15.4240000   15.4140000   21.6080000  
C 16.3170000   18.4700000   19.5070000  
C 15.7370000   18.4090000   18.2340000  
N 15.2600000   17.1450000   17.8830000  
O 16.0250000   20.6770000   17.8480000  
C 15.6050000   19.5180000   17.2990000  
O 15.0810000   19.5010000   16.2150000  
O 14.3750000   13.4410000   20.7200000  
O 15.3520000   14.8490000   22.8500000  
H 16.6530000   19.3600000   19.9900000  
H 16.4420000   20.3990000   18.6700000  
H 14.6980000   16.9400000   17.0370000  
H 14.3650000   12.9670000   19.8820000  
H 14.9630000   13.9840000   22.8420000  
C 14.2810000   14.3730000   18.0260000  
C 15.0900000   13.9660000   16.9630000  
C 14.5890000   13.2180000   15.9420000  
C 13.2610000   12.7940000   15.8730000  
C 12.4180000   13.2700000   16.8880000  
C 12.9100000   14.0440000   17.9970000  
C 16.5160000   14.1540000   16.7450000  
C 16.8610000   13.3260000   15.6390000  
N 15.6560000   12.7890000   15.1680000  
O 19.1520000   13.5110000   16.0660000  
C 18.2340000   13.0120000   15.1830000  
O 18.4720000   12.2080000   14.2960000  
O 11.1430000   12.7620000   16.9090000  
O 12.1050000   14.6050000   18.9170000  
H 17.1620000   14.7560000   17.4100000  
H 18.6730000   14.0990000   16.7190000  
H 15.6030000   12.1310000   14.4650000  
H 10.7310000   13.2070000   17.6660000  
H 12.6410000   15.1040000   19.5660000  
H 12.9780000   12.1280000   15.0590000  
