76
000 
C 14.9560000   10.0550000   21.3460000  
C 16.2240000    9.5400000   21.8080000  
C 17.3060000   10.3240000   22.0200000  
C 17.1170000   11.7050000   21.9970000  
C 15.8790000   12.3570000   21.6460000  
C 14.8130000   11.5530000   21.1750000  
C 18.5240000   10.1080000   22.5660000  
C 19.1230000   11.3340000   22.7300000  
N 18.1820000   12.3210000   22.4620000  
O 20.9670000   10.3770000   23.7800000  
C 20.3490000   11.5460000   23.5220000  
O 20.7860000   12.6200000   23.8970000  
O 13.6430000   11.9930000   20.7580000  
O 14.0480000    9.3200000   20.9830000  
H 16.2620000    8.4600000   21.9120000  
H 18.9030000    9.1560000   22.8500000  
H 20.6280000    9.8550000   23.0060000  
H 13.4570000   12.8330000   21.1920000  
C 15.7450000   13.8210000   21.8070000  
C 16.3160000   14.6640000   20.8910000  
C 16.2150000   16.0210000   20.9980000  
C 15.4590000   16.7460000   21.9920000  
C 14.7680000   15.8670000   22.8560000  
C 15.0040000   14.4830000   22.8100000  
C 17.1920000   14.3980000   19.8360000  
C 17.6030000   15.6720000   19.3900000  
N 17.0390000   16.6170000   20.1300000  
O 19.0270000   14.8520000   17.7870000  
C 18.6600000   15.9440000   18.4350000  
O 19.0490000   17.0420000   18.1540000  
O 14.0780000   16.4040000   23.8790000  
O 14.5140000   13.7570000   23.8710000  
H 17.5960000   13.4750000   19.4780000  
H 18.3850000   14.1660000   17.9860000  
H 17.0310000   17.6540000   19.9450000  
H 14.1970000   17.4010000   23.7590000  
H 14.0470000   14.3680000   24.4200000  
C 15.4330000   18.2830000   22.0190000  
C 15.0030000   19.0370000   20.8820000  
C 14.9420000   20.3860000   20.9640000  
C 15.1170000   21.2250000   22.1000000  
C 15.5810000   20.5630000   23.2100000  
C 15.7690000   19.1080000   23.1780000  
C 14.5250000   18.6930000   19.5210000  
C 14.3040000   19.9110000   18.8770000  
N 14.5240000   20.9420000   19.7900000  
O 13.4660000   19.0390000   16.8390000  
C 13.6320000   20.1200000   17.5580000  
O 13.3070000   21.1800000   17.1420000  
O 15.7200000   21.1760000   24.3660000  
O 16.3610000   18.5190000   24.2250000  
H 14.4310000   17.7410000   19.0430000  
H 14.0060000   18.3720000   17.3690000  
H 14.3690000   21.9780000   19.7040000  
H 15.3990000   22.1070000   24.2090000  
H 16.3570000   19.1830000   24.9580000  
C 15.0440000   22.7230000   22.0270000  
C 14.0270000   23.4670000   22.6980000  
C 13.9490000   24.8450000   22.6240000  
C 14.8750000   25.5700000   21.9160000  
C 15.9020000   24.8890000   21.2440000  
C 15.9450000   23.4800000   21.2630000  
C 12.9630000   23.0100000   23.5160000  
C 12.2320000   24.1260000   23.9370000  
N 12.8960000   25.2610000   23.3710000  
O 10.6460000   23.0250000   25.4320000  
C 11.0700000   24.1390000   24.8660000  
O 10.4230000   25.2060000   25.1030000  
O 16.9690000   25.5720000   20.7180000  
O 17.0400000   22.9530000   20.5650000  
H 12.7140000   21.9330000   23.6880000  
H 11.2120000   22.3860000   25.0600000  
H 12.6420000   26.2390000   23.5150000  
H 17.1870000   25.0720000   19.8860000  
H 17.3330000   22.2220000   21.1270000  
H 14.7720000   26.6340000   21.9100000  
