76
000 
C 16.8610000   21.0550000   28.1870000  
C 17.3750000   20.0220000   29.1160000  
C 17.5520000   18.7450000   28.6280000  
C 17.2620000   18.3860000   27.2900000  
C 16.7490000   19.3150000   26.3690000  
C 16.4960000   20.6020000   26.8070000  
C 18.0590000   17.6160000   29.2450000  
C 17.9950000   16.6080000   28.2960000  
N 17.5140000   17.0640000   27.0530000  
O 18.9640000   14.9200000   29.6810000  
C 18.5750000   15.2710000   28.4630000  
O 18.6740000   14.4780000   27.5710000  
O 15.6950000   21.3710000   26.0810000  
O 16.6180000   22.1860000   28.5060000  
H 17.5660000   20.3150000   30.1370000  
H 18.4530000   17.5960000   30.2730000  
H 18.7130000   15.6660000   30.1120000  
H 15.2960000   20.7840000   25.3750000  
C 16.4920000   18.9230000   25.0450000  
C 15.1210000   18.7820000   24.6940000  
C 14.8460000   18.4290000   23.3730000  
C 15.7620000   18.1480000   22.3610000  
C 17.1790000   18.3120000   22.7490000  
C 17.4860000   18.7610000   23.9940000  
C 13.8560000   18.8930000   25.3890000  
C 12.8280000   18.5220000   24.5130000  
N 13.4890000   18.1780000   23.3380000  
O 10.9990000   18.8420000   25.9850000  
C 11.3800000   18.5070000   24.7040000  
O 10.6930000   18.2050000   23.7990000  
O 18.1010000   18.1310000   21.7520000  
O 18.7770000   19.0040000   24.2700000  
H 13.6600000   19.0720000   26.3830000  
H 11.8140000   19.0010000   26.4710000  
H 12.9760000   17.8810000   22.4880000  
H 17.6130000   17.7090000   21.0000000  
H 19.3000000   18.8070000   23.5000000  
C 15.2810000   17.7400000   20.9650000  
C 15.5490000   18.6130000   19.8620000  
C 15.1540000   18.2510000   18.6180000  
C 14.4600000   17.0070000   18.3470000  
C 14.2930000   16.1010000   19.4680000  
C 14.6170000   16.5160000   20.7650000  
C 16.2970000   19.8660000   19.6660000  
C 16.4970000   20.0740000   18.3230000  
N 15.6870000   19.1230000   17.6410000  
O 17.9190000   22.0380000   18.4230000  
C 17.2340000   21.2070000   17.6330000  
O 17.1350000   21.3180000   16.4070000  
O 13.6940000   14.8560000   19.2150000  
O 14.3530000   15.7510000   21.8620000  
H 16.5140000   20.6070000   20.4620000  
H 17.9570000   21.7210000   19.3520000  
H 15.5860000   19.0370000   16.6780000  
H 13.5010000   14.8090000   18.2640000  
H 14.1180000   14.8720000   21.4810000  
C 13.9980000   16.6560000   16.9770000  
C 14.6490000   15.6440000   16.2760000  
C 14.2560000   15.1420000   15.0610000  
C 13.2220000   15.7630000   14.3430000  
C 12.5800000   16.8810000   14.9420000  
C 12.9420000   17.2820000   16.2660000  
C 15.7500000   14.8120000   16.7250000  
C 16.0020000   13.9290000   15.8230000  
N 15.1010000   14.0420000   14.7590000  
O 17.7150000   12.9160000   17.1460000  
C 17.0700000   12.9390000   15.9620000  
O 17.4620000   12.2450000   15.0470000  
O 11.6060000   17.6030000   14.3030000  
O 12.3990000   18.4230000   16.7900000  
H 16.4030000   14.9990000   17.5330000  
H 17.2220000   13.5530000   17.5750000  
H 15.0760000   13.5380000   13.9000000  
H 11.2260000   18.2800000   14.9520000  
H 12.9680000   18.6270000   17.5690000  
H 12.7900000   15.4370000   13.3860000  
