76
000 
C 18.6440000   17.5460000   28.5980000  
C 18.4630000   16.1390000   29.1400000  
C 17.8480000   15.2180000   28.3600000  
C 17.4090000   15.4270000   27.0580000  
C 17.5290000   16.7570000   26.4840000  
C 18.0990000   17.7370000   27.2160000  
C 17.6510000   13.8730000   28.5910000  
C 17.0000000   13.3720000   27.4390000  
N 16.9120000   14.3710000   26.4570000  
O 16.4200000   11.0460000   28.2430000  
C 16.3240000   12.0290000   27.3180000  
O 15.8000000   11.6930000   26.2680000  
O 18.2100000   19.0040000   26.7000000  
O 19.2610000   18.3900000   29.1520000  
H 18.9170000   15.8730000   30.1080000  
H 17.8490000   13.3530000   29.5550000  
H 16.7860000   11.5450000   29.0780000  
H 18.1670000   18.8090000   25.7340000  
C 17.1450000   16.9300000   25.0670000  
C 15.8280000   17.2430000   24.7710000  
C 15.4210000   17.4770000   23.5220000  
C 16.2480000   17.4900000   22.3860000  
C 17.6010000   17.1250000   22.6590000  
C 18.0860000   16.8650000   23.9630000  
C 14.6830000   17.2770000   25.5940000  
C 13.5930000   17.5220000   24.7200000  
N 14.0810000   17.5950000   23.4010000  
O 11.9720000   17.3260000   26.4650000  
C 12.1810000   17.5490000   25.1290000  
O 11.2570000   17.7110000   24.3960000  
O 18.4290000   16.9840000   21.5450000  
O 19.3550000   16.5760000   24.1970000  
H 14.5730000   17.1860000   26.6810000  
H 12.8650000   17.2190000   26.8240000  
H 13.5420000   17.8690000   22.6640000  
H 18.0270000   17.3460000   20.7580000  
H 19.6740000   16.3190000   23.2960000  
C 15.7540000   17.6530000   21.0230000  
C 15.6730000   18.8780000   20.3900000  
C 15.2190000   19.0040000   19.1050000  
C 14.6850000   17.8960000   18.3420000  
C 14.9330000   16.6070000   18.8340000  
C 15.5060000   16.5400000   20.1640000  
C 15.9310000   20.1980000   20.8510000  
C 15.5930000   21.0670000   19.8880000  
N 15.1070000   20.3570000   18.7510000  
O 15.9650000   23.0500000   21.2640000  
C 15.6410000   22.5730000   19.9790000  
O 15.4350000   23.3220000   19.0190000  
O 14.6360000   15.4860000   18.0560000  
O 15.7230000   15.2680000   20.6990000  
H 16.4280000   20.4980000   21.8310000  
H 16.0790000   22.2510000   21.8060000  
H 14.7550000   20.7270000   17.8440000  
H 14.3530000   15.7500000   17.1450000  
H 15.3710000   14.6280000   20.0840000  
C 13.9740000   18.0570000   17.0490000  
C 14.4870000   18.7480000   15.9670000  
C 13.8580000   18.6990000   14.7390000  
C 12.5840000   18.2150000   14.5590000  
C 11.9140000   17.6280000   15.6830000  
C 12.6210000   17.6610000   16.9050000  
C 15.7310000   19.4730000   15.7770000  
C 15.5910000   20.1200000   14.5580000  
N 14.4770000   19.5690000   13.8560000  
O 17.5420000   21.4690000   14.4890000  
C 16.4130000   21.1380000   13.8180000  
O 16.1240000   21.6330000   12.7330000  
O 10.5920000   17.2770000   15.6100000  
O 11.9260000   17.2180000   17.9890000  
H 16.5140000   19.7640000   16.4880000  
H 17.4910000   20.9980000   15.3500000  
H 14.1680000   19.7610000   12.8980000  
H 10.3920000   16.7400000   16.3920000  
H 12.5550000   17.0000000   18.6630000  
H 12.0730000   18.2320000   13.6310000  
