76
000 
C 13.0950000   22.3720000   26.8990000  
C 14.2280000   22.7810000   27.6920000  
C 15.5200000   22.3320000   27.4120000  
C 15.8020000   21.4360000   26.3060000  
C 14.7100000   20.9200000   25.5440000  
C 13.4220000   21.3750000   25.8760000  
C 16.8000000   22.4850000   28.0470000  
C 17.7010000   21.7340000   27.2940000  
N 17.0890000   21.0890000   26.2000000  
O 19.4930000   22.3940000   28.6070000  
C 19.1250000   21.6220000   27.5720000  
O 19.9250000   20.8120000   27.0670000  
O 12.4100000   21.0420000   25.0110000  
O 11.9620000   22.6870000   27.0550000  
H 14.0240000   23.3810000   28.5380000  
H 16.9390000   23.0310000   28.8880000  
H 18.6670000   22.8030000   28.8670000  
H 12.7670000   20.2250000   24.5150000  
C 15.0650000   20.0260000   24.4230000  
C 15.3250000   18.6710000   24.5550000  
C 15.6010000   17.9030000   23.4510000  
C 15.6990000   18.3090000   22.1190000  
C 15.4860000   19.7390000   21.9220000  
C 15.1880000   20.4980000   23.0810000  
C 15.7370000   17.8510000   25.6880000  
C 16.0680000   16.5650000   25.2020000  
N 15.8720000   16.5970000   23.8240000  
O 16.6420000   15.4940000   27.2690000  
C 16.5230000   15.3760000   25.9120000  
O 16.8040000   14.3320000   25.3630000  
O 15.5170000   20.3120000   20.6980000  
O 15.0270000   21.7900000   22.8620000  
H 15.6030000   18.0600000   26.7590000  
H 16.2310000   16.3630000   27.4200000  
H 16.1430000   15.8940000   23.1820000  
H 16.1640000   19.7880000   20.1640000  
H 14.9520000   21.8340000   21.9060000  
C 15.9780000   17.3030000   21.0750000  
C 15.0270000   16.3010000   20.9280000  
C 15.1370000   15.4270000   19.8370000  
C 16.1380000   15.4280000   18.8300000  
C 17.1620000   16.3540000   19.0450000  
C 17.1220000   17.2590000   20.1580000  
C 13.7830000   16.0040000   21.5920000  
C 13.1300000   15.1000000   20.7350000  
N 14.0130000   14.6510000   19.7130000  
O 10.9220000   15.4480000   21.6520000  
C 11.6490000   14.7840000   20.7500000  
O 11.1960000   13.9930000   20.0010000  
O 18.2050000   16.4960000   18.1220000  
O 17.9230000   18.3630000   20.0100000  
H 13.4170000   16.6280000   22.3830000  
H 11.4880000   16.0520000   21.9660000  
H 13.8050000   13.8700000   19.0950000  
H 18.0320000   16.0110000   17.3090000  
H 18.0480000   18.5080000   19.0720000  
C 16.0940000   14.5200000   17.6640000  
C 16.0570000   15.1150000   16.3520000  
C 15.9720000   14.3590000   15.2470000  
C 16.2150000   12.9660000   15.2300000  
C 16.3330000   12.3520000   16.5110000  
C 16.2470000   13.1100000   17.6890000  
C 15.7580000   16.4830000   15.9390000  
C 15.8030000   16.5230000   14.5620000  
N 15.8630000   15.1730000   14.1620000  
O 15.9240000   18.8740000   14.5460000  
C 15.8120000   17.7730000   13.7510000  
O 15.6900000   17.8760000   12.5360000  
O 16.3530000   11.0050000   16.4600000  
O 16.5150000   12.4640000   18.9050000  
H 15.5270000   17.2780000   16.5570000  
H 15.9260000   18.4680000   15.3800000  
H 15.8930000   14.8920000   13.2090000  
H 16.7380000   10.7130000   17.2870000  
H 16.7330000   13.1410000   19.5950000  
H 16.2640000   12.3740000   14.2810000  
