76
000 
C 14.7530000   11.4320000   25.9520000  
C 16.1360000   11.2210000   26.5280000  
C 17.1290000   12.0890000   26.2340000  
C 16.9400000   13.1590000   25.3790000  
C 15.6330000   13.5700000   24.9410000  
C 14.5820000   12.7230000   25.1900000  
C 18.4880000   12.1040000   26.6570000  
C 18.9920000   13.2710000   26.1030000  
N 18.0300000   13.8890000   25.2730000  
O 21.0570000   12.9780000   27.0930000  
C 20.3700000   13.7300000   26.1680000  
O 20.8540000   14.6880000   25.5350000  
O 13.3730000   12.8900000   24.6640000  
O 13.8500000   10.6110000   26.1380000  
H 16.2820000   10.3720000   27.1580000  
H 19.0460000   11.3080000   27.1660000  
H 20.3910000   12.4090000   27.4240000  
H 13.2960000   13.8310000   24.6820000  
C 15.4800000   14.7570000   24.0630000  
C 16.2050000   14.8290000   22.8440000  
C 16.1850000   15.9900000   22.0700000  
C 15.4450000   17.1800000   22.3500000  
C 14.6780000   17.0860000   23.5700000  
C 14.6610000   15.8890000   24.3540000  
C 17.2080000   13.9450000   22.2920000  
C 17.7510000   14.6600000   21.1820000  
N 17.0970000   15.9080000   21.0710000  
O 19.0260000   12.8490000   20.1780000  
C 18.6210000   14.1130000   20.0830000  
O 18.8730000   14.7610000   19.0870000  
O 14.0580000   18.1900000   24.1230000  
O 13.8370000   15.7630000   25.4900000  
H 17.3900000   12.8740000   22.5250000  
H 18.5990000   12.5350000   20.9850000  
H 17.2160000   16.6350000   20.4910000  
H 13.9140000   18.9180000   23.4660000  
H 14.0180000   16.5410000   26.0400000  
C 15.4840000   18.3780000   21.5080000  
C 14.9860000   18.2580000   20.1980000  
C 14.9510000   19.4000000   19.4190000  
C 15.3690000   20.6850000   19.8400000  
C 15.9980000   20.7540000   21.1260000  
C 15.8360000   19.6710000   21.9890000  
C 14.3310000   17.2810000   19.3420000  
C 13.9320000   17.8370000   18.1680000  
N 14.4440000   19.1310000   18.1580000  
O 12.7760000   15.9050000   17.2570000  
C 13.1680000   17.2120000   17.0990000  
O 12.8240000   17.7630000   16.0300000  
O 16.7260000   21.7930000   21.5360000  
O 16.3880000   19.7260000   23.2180000  
H 14.0430000   16.3170000   19.6290000  
H 13.0710000   15.5360000   18.1420000  
H 14.2940000   19.7930000   17.4160000  
H 16.7130000   22.4680000   20.8970000  
H 16.5720000   20.6070000   23.5020000  
C 15.2210000   21.8430000   18.9170000  
C 14.2600000   22.8980000   19.1930000  
C 14.1730000   24.0040000   18.4130000  
C 14.9550000   24.1510000   17.2760000  
C 15.9290000   23.1850000   17.0110000  
C 16.0350000   22.0310000   17.7980000  
C 13.3250000   23.0990000   20.2440000  
C 12.6700000   24.3230000   20.0600000  
N 13.1840000   24.8690000   18.8640000  
O 11.4380000   24.3110000   22.1280000  
C 11.6530000   24.9830000   20.9670000  
O 11.0280000   25.9720000   20.7440000  
O 16.7930000   23.3960000   15.9210000  
O 16.9960000   21.1890000   17.4430000  
H 13.1390000   22.3400000   21.0060000  
H 12.0210000   23.5650000   22.1030000  
H 13.1490000   25.8740000   18.5020000  
H 17.2660000   22.5060000   15.7420000  
H 16.7750000   20.2990000   17.8600000  
H 14.8850000   25.0600000   16.6920000  
