76
000 
C 18.3970000   23.0910000   25.9600000  
C 17.7000000   23.0510000   27.2620000  
C 16.7000000   22.1140000   27.4870000  
C 16.2960000   21.1640000   26.5440000  
C 17.1190000   21.0020000   25.4130000  
C 18.1100000   21.8890000   25.1120000  
C 15.8000000   21.9470000   28.5520000  
C 14.9750000   20.8870000   28.1710000  
N 15.3690000   20.3640000   26.9720000  
O 13.3470000   21.3840000   29.7880000  
C 13.8040000   20.4770000   28.9490000  
O 13.2600000   19.3770000   28.8730000  
O 18.9280000   21.9020000   24.0340000  
O 19.1530000   23.9950000   25.6880000  
H 17.9770000   23.7550000   28.0230000  
H 15.7700000   22.6430000   29.4650000  
H 13.7940000   22.3120000   29.6130000  
H 18.9770000   20.9830000   23.7190000  
C 16.8470000   19.9870000   24.4590000  
C 15.9030000   20.1990000   23.4050000  
C 15.6610000   19.1730000   22.5000000  
C 16.2390000   17.8640000   22.5520000  
C 17.1900000   17.6700000   23.5580000  
C 17.4960000   18.7040000   24.5090000  
C 15.0920000   21.3120000   23.0550000  
C 14.4180000   20.9700000   21.8780000  
N 14.7630000   19.6440000   21.4810000  
O 13.0250000   22.8740000   21.8140000  
C 13.3540000   21.7080000   21.1950000  
O 12.6360000   21.3440000   20.3180000  
O 17.6930000   16.4000000   23.6780000  
O 18.3510000   18.4220000   25.4770000  
H 14.7870000   22.1070000   23.7170000  
H 13.5060000   22.8580000   22.6590000  
H 14.4570000   19.1590000   20.6160000  
H 17.1290000   15.7870000   23.1830000  
H 18.7690000   17.5930000   25.2170000  
C 15.6680000   16.8180000   21.5820000  
C 15.7420000   16.9240000   20.1960000  
C 15.2880000   16.0070000   19.3270000  
C 14.6490000   14.7900000   19.7100000  
C 14.4450000   14.7430000   21.1690000  
C 14.9270000   15.7650000   22.0710000  
C 16.1970000   18.0310000   19.3660000  
C 15.9140000   17.6830000   18.0210000  
N 15.3330000   16.4360000   18.0380000  
O 16.5380000   19.7490000   17.1370000  
C 16.0420000   18.5890000   16.8410000  
O 15.6940000   18.3820000   15.7150000  
O 13.8100000   13.6610000   21.7020000  
O 14.7300000   15.5930000   23.3840000  
H 16.6330000   18.9760000   19.6840000  
H 16.7140000   19.7600000   18.1050000  
H 14.9900000   15.9330000   17.2580000  
H 13.7330000   13.0120000   20.9310000  
H 14.1310000   14.8490000   23.6610000  
C 14.2030000   13.7350000   18.7080000  
C 15.1280000   13.2580000   17.7560000  
C 14.8140000   12.2810000   16.7650000  
C 13.5260000   11.7570000   16.6740000  
C 12.5800000   12.0780000   17.7340000  
C 12.9010000   13.0950000   18.7180000  
C 16.5690000   13.5560000   17.5540000  
C 17.0330000   12.8400000   16.4690000  
N 15.9000000   12.1010000   15.9230000  
O 19.2620000   13.5490000   16.7430000  
C 18.4220000   12.7940000   16.0380000  
O 18.8400000   12.1090000   15.1180000  
O 11.3620000   11.5570000   17.7400000  
O 11.9520000   13.2410000   19.7030000  
H 17.1760000   14.1400000   18.1910000  
H 18.7100000   14.0600000   17.4010000  
H 15.9550000   11.4750000   15.0700000  
H 10.7760000   12.0180000   18.3820000  
H 11.9080000   14.1960000   19.9710000  
H 13.3090000   11.1490000   15.8480000  
