76
001 
C 11.8750000   19.4310000   15.3670000  
C 10.6940000   20.2300000   15.7510000  
C 10.4980000   20.4910000   17.0450000  
C 11.2920000   20.0090000   18.1360000  
C 12.4540000   19.2340000   17.8480000  
C 12.6520000   18.8890000   16.4870000  
C  9.6240000   21.4380000   17.5640000  
C 10.0220000   21.4600000   18.9210000  
N 11.0280000   20.5860000   19.3060000  
O  8.6190000   23.3240000   19.3660000  
C  9.4650000   22.4250000   19.9100000  
O  9.8470000   22.5110000   21.0430000  
O 13.7470000   18.1920000   16.0570000  
O 12.2110000   19.1110000   14.2230000  
H  9.9720000   20.5900000   15.0830000  
H  8.7830000   21.9430000   17.1000000  
H  8.4490000   23.0670000   18.4800000  
H 14.1560000   17.8470000   16.8500000  
C 13.3820000   18.8160000   18.9020000  
C 13.3350000   17.5930000   19.6040000  
C 14.1730000   17.3290000   20.6510000  
C 15.0860000   18.2670000   21.1600000  
C 15.0760000   19.5250000   20.5710000  
C 14.2450000   19.8080000   19.5030000  
C 12.6090000   16.3990000   19.3550000  
C 12.9890000   15.4800000   20.3680000  
N 14.0400000   16.0310000   21.1650000  
O 11.3940000   13.8090000   19.5600000  
C 12.3640000   14.0980000   20.4890000  
O 12.7240000   13.2340000   21.2910000  
O 15.9020000   20.4990000   21.0520000  
O 14.2840000   21.0660000   18.9990000  
H 11.8720000   16.3380000   18.5780000  
H 11.3080000   14.5670000   18.9320000  
H 14.5400000   15.7330000   22.0680000  
H 16.6940000   19.9920000   21.4690000  
H 14.8210000   21.4790000   19.7270000  
C 15.9710000   17.9580000   22.3360000  
C 17.2890000   17.5100000   22.1400000  
C 18.1210000   17.3370000   23.1490000  
C 17.9090000   17.5780000   24.4920000  
C 16.5690000   18.1120000   24.7570000  
C 15.6430000   18.2840000   23.7010000  
C 17.9610000   17.1070000   20.8880000  
C 19.2990000   16.8240000   21.2610000  
N 19.3680000   16.9030000   22.6610000  
O 19.9710000   16.0110000   19.0860000  
C 20.3740000   16.3510000   20.3040000  
O 21.5810000   16.2290000   20.5560000  
O 16.0840000   18.2900000   26.0090000  
O 14.4160000   18.8390000   23.9480000  
H 17.6630000   17.2800000   19.9420000  
H 19.0210000   16.1400000   18.9740000  
H 20.0820000   16.5470000   23.2700000  
H 15.2160000   18.6940000   25.8500000  
H 13.9940000   19.0850000   23.0850000  
C 18.8210000   17.1440000   25.6010000  
C 20.0370000   17.8840000   25.8140000  
C 20.8920000   17.5340000   26.8400000  
C 20.6480000   16.4790000   27.6800000  
C 19.5600000   15.6680000   27.4480000  
C 18.6620000   16.0000000   26.3940000  
C 20.5610000   19.0270000   25.2250000  
C 21.7490000   19.3000000   25.8940000  
N 21.9080000   18.3800000   26.9470000  
O 22.1710000   21.0900000   24.4850000  
C 22.7200000   20.3590000   25.5340000  
O 23.8750000   20.4700000   25.9410000  
O 19.3220000   14.5030000   28.2150000  
O 17.6380000   15.1100000   26.1440000  
H 20.1680000   19.4720000   24.2640000  
H 21.5420000   20.5460000   24.0090000  
H 22.7670000   18.2570000   27.5050000  
H 18.4500000   14.1370000   27.9390000  
H 17.0200000   15.5120000   25.4920000  
H 21.3400000   16.2820000   28.4910000  
