76
001 
C 13.4100000   15.1050000   28.2100000  
C 14.5660000   14.3130000   28.5830000  
C 15.7760000   14.3800000   27.9150000  
C 15.9880000   15.2120000   26.8280000  
C 14.9510000   16.0620000   26.3430000  
C 13.7280000   16.0740000   27.0250000  
C 16.9770000   13.6230000   28.1230000  
C 17.8250000   14.0470000   27.1370000  
N 17.1950000   14.9920000   26.3180000  
O 19.4460000   12.4260000   27.6400000  
C 19.0510000   13.3520000   26.7570000  
O 19.7440000   13.6030000   25.7750000  
O 12.7150000   16.8100000   26.5910000  
O 12.3750000   15.0570000   28.8750000  
H 14.4980000   13.6680000   29.4010000  
H 17.2210000   12.9770000   28.9160000  
H 18.7910000   12.4060000   28.3120000  
H 13.2010000   17.2690000   25.7870000  
C 15.1970000   16.8370000   25.0940000  
C 15.3790000   16.1730000   23.8630000  
C 15.6930000   16.7400000   22.6830000  
C 16.0550000   18.1080000   22.5580000  
C 15.7710000   18.8630000   23.6920000  
C 15.4030000   18.2350000   24.9250000  
C 15.1580000   14.7710000   23.5580000  
C 15.3520000   14.5560000   22.1650000  
N 15.7150000   15.8170000   21.6030000  
O 15.1600000   12.1530000   22.1560000  
C 15.4010000   13.2590000   21.4650000  
O 15.7790000   13.2040000   20.3030000  
O 15.8460000   20.1790000   23.7240000  
O 15.1580000   19.0320000   26.0190000  
H 14.7550000   14.0840000   24.3050000  
H 14.7920000   12.3660000   23.0410000  
H 15.8390000   16.0330000   20.5980000  
H 16.1900000   20.4910000   22.9150000  
H 15.2110000   19.9710000   25.7570000  
C 16.3250000   18.7270000   21.2340000  
C 15.3580000   19.3480000   20.5250000  
C 15.6690000   19.8970000   19.3330000  
C 16.9650000   20.0390000   18.7610000  
C 17.9320000   19.2000000   19.4010000  
C 17.5880000   18.5460000   20.6260000  
C 13.9580000   19.4490000   20.8070000  
C 13.4850000   20.0670000   19.6650000  
N 14.5280000   20.3060000   18.7460000  
O 11.2030000   19.8800000   20.2740000  
C 12.1030000   20.3030000   19.2840000  
O 11.7090000   20.8470000   18.2790000  
O 19.2380000   19.1090000   18.9220000  
O 18.6550000   18.0780000   21.3180000  
H 13.4200000   19.0960000   21.6650000  
H 11.7510000   19.5930000   20.9700000  
H 14.3640000   20.6350000   17.8080000  
H 19.6850000   18.7500000   19.6880000  
H 18.3620000   18.0180000   22.2210000  
C 16.9980000   20.7130000   17.4430000  
C 16.5820000   22.0080000   17.2320000  
C 16.5410000   22.5050000   15.9600000  
C 16.8800000   21.8410000   14.8080000  
C 17.3620000   20.5280000   15.0380000  
C 17.4320000   19.9410000   16.3170000  
C 16.0770000   23.0560000   18.1060000  
C 15.7000000   24.1210000   17.2930000  
N 16.0170000   23.7860000   15.9520000  
O 15.0000000   25.7560000   18.9650000  
C 15.0990000   25.4620000   17.6310000  
O 14.8590000   26.2280000   16.7480000  
O 17.7920000   19.8530000   13.9600000  
O 17.8040000   18.6430000   16.3900000  
H 15.7850000   22.9790000   19.1310000  
H 15.1460000   24.9630000   19.5230000  
H 15.9760000   24.3210000   15.0820000  
H 17.9940000   18.9300000   14.3160000  
H 17.8170000   18.4060000   17.3300000  
H 16.8880000   22.3270000   13.8730000  
