76
001 
C 12.2570000   13.2540000   26.0340000  
C 13.3740000   12.4410000   26.6360000  
C 14.6310000   12.6810000   26.1840000  
C 14.9390000   13.6740000   25.1860000  
C 13.9060000   14.3820000   24.4910000  
C 12.5820000   14.2130000   24.9140000  
C 15.8670000   12.0860000   26.5200000  
C 16.8160000   12.7180000   25.6680000  
N 16.1980000   13.7160000   24.8900000  
O 18.6940000   11.4850000   26.5190000  
C 18.2740000   12.4280000   25.7050000  
O 19.1230000   13.1470000   25.0980000  
O 11.5540000   14.9220000   24.4110000  
O 11.1400000   13.1670000   26.5390000  
H 13.0070000   11.6530000   27.2900000  
H 16.0660000   11.2760000   27.1970000  
H 17.8490000   11.1810000   26.8720000  
H 11.9510000   15.4930000   23.6810000  
C 14.3370000   15.5230000   23.6230000  
C 14.6750000   15.2010000   22.3140000  
C 15.2820000   16.1470000   21.5680000  
C 15.3810000   17.5650000   21.8540000  
C 15.0490000   17.8060000   23.2110000  
C 14.5850000   16.8330000   24.0930000  
C 14.7250000   13.9360000   21.5740000  
C 15.4690000   14.1910000   20.4310000  
N 15.7260000   15.6090000   20.3560000  
O 15.5930000   12.0060000   19.6730000  
C 16.0100000   13.2790000   19.4650000  
O 16.8030000   13.5940000   18.5560000  
O 15.2160000   19.0900000   23.6290000  
O 14.2920000   17.1960000   25.3770000  
H 14.4660000   12.9860000   21.9510000  
H 14.9080000   12.0340000   20.4050000  
H 16.1030000   16.0550000   19.5880000  
H 15.6740000   19.6990000   23.0560000  
H 14.3130000   18.1780000   25.4470000  
C 15.9790000   18.5520000   20.9680000  
C 15.1520000   19.5540000   20.4590000  
C 15.6600000   20.5970000   19.7030000  
C 17.0360000   20.9040000   19.4710000  
C 17.8570000   19.9100000   20.0560000  
C 17.3570000   18.7910000   20.8230000  
C 13.7180000   19.7760000   20.5590000  
C 13.4080000   20.9090000   19.8250000  
N 14.6110000   21.3980000   19.2630000  
O 11.0880000   20.8010000   20.1440000  
C 12.1390000   21.4910000   19.6270000  
O 11.9470000   22.5020000   19.0720000  
O 19.1990000   20.0070000   19.9790000  
O 18.1240000   17.9390000   21.4250000  
H 13.1270000   19.3740000   21.4500000  
H 11.4970000   20.0330000   20.6610000  
H 14.6980000   22.1770000   18.6820000  
H 19.5190000   19.0680000   20.1420000  
H 17.6900000   17.0870000   21.5780000  
C 17.4780000   22.0640000   18.6780000  
C 17.6230000   23.3400000   19.3140000  
C 18.0310000   24.4320000   18.6690000  
C 18.1510000   24.4110000   17.2790000  
C 18.0250000   23.1480000   16.5800000  
C 17.6280000   21.9870000   17.2780000  
C 17.5020000   23.6760000   20.7410000  
C 17.7180000   25.0350000   20.8590000  
N 17.9480000   25.4990000   19.5390000  
O 17.9040000   25.0630000   23.2450000  
C 17.6700000   25.7660000   22.1170000  
O 17.6030000   26.9540000   22.1630000  
O 18.2940000   23.1160000   15.2390000  
O 17.5540000   20.7670000   16.5600000  
H 17.2250000   23.1070000   21.5720000  
H 18.2670000   24.2540000   22.9600000  
H 17.9830000   26.4790000   19.2770000  
H 18.3110000   22.1610000   14.9130000  
H 17.3260000   19.9910000   17.1160000  
H 18.3940000   25.3210000   16.7100000  
