76
001 
C 14.0780000   15.0030000   28.2880000  
C 14.8700000   13.7120000   28.2700000  
C 15.8550000   13.5090000   27.2850000  
C 16.0670000   14.4430000   26.2490000  
C 15.3710000   15.6510000   26.1380000  
C 14.3820000   15.8470000   27.0810000  
C 16.8610000   12.5920000   27.1660000  
C 17.6390000   12.9250000   26.0770000  
N 17.1130000   14.0950000   25.5310000  
O 19.1100000   11.1280000   26.4160000  
C 18.8010000   12.1570000   25.5930000  
O 19.4470000   12.4450000   24.6010000  
O 13.6340000   16.9340000   27.1690000  
O 13.2040000   15.2430000   29.0880000  
H 14.6850000   13.0710000   29.1370000  
H 16.9760000   11.6860000   27.7760000  
H 18.4170000   11.0980000   27.0730000  
H 13.6380000   17.4340000   26.3310000  
C 15.5490000   16.5700000   24.9900000  
C 14.9680000   16.2970000   23.7340000  
C 15.2800000   16.9960000   22.6060000  
C 16.1840000   18.0720000   22.5530000  
C 16.7990000   18.4070000   23.7780000  
C 16.5290000   17.6680000   24.9610000  
C 14.0100000   15.2910000   23.3690000  
C 13.8680000   15.3400000   21.9710000  
N 14.6230000   16.4680000   21.5120000  
O 12.6040000   13.4000000   21.9490000  
C 12.9720000   14.4630000   21.1400000  
O 12.6290000   14.6260000   19.9890000  
O 17.6440000   19.4540000   23.9220000  
O 17.1830000   17.8750000   26.0910000  
H 13.6330000   14.6250000   24.0750000  
H 13.0840000   13.6120000   22.7740000  
H 14.5390000   16.9950000   20.6890000  
H 17.4190000   20.1090000   23.2340000  
H 17.8790000   18.5520000   25.8860000  
C 16.4800000   18.7870000   21.2940000  
C 15.3990000   19.3240000   20.5440000  
C 15.6010000   19.9780000   19.4370000  
C 16.8970000   20.2070000   18.8670000  
C 17.9270000   19.5120000   19.5310000  
C 17.8260000   18.8860000   20.8340000  
C 13.9910000   19.2840000   20.6970000  
C 13.4280000   19.8840000   19.5560000  
N 14.4530000   20.3730000   18.7600000  
O 11.1370000   19.5110000   20.1280000  
C 11.9990000   19.9870000   19.2190000  
O 11.6550000   20.5450000   18.1960000  
O 19.2340000   19.6090000   19.0770000  
O 18.9870000   18.3720000   21.3900000  
H 13.4380000   19.0510000   21.5800000  
H 11.6260000   18.9210000   20.7510000  
H 14.3470000   20.5470000   17.7670000  
H 19.7730000   19.4220000   19.8960000  
H 18.7380000   17.6340000   22.0220000  
C 17.0700000   20.9920000   17.6290000  
C 16.7300000   22.3830000   17.6400000  
C 16.9770000   23.1470000   16.5790000  
C 17.5930000   22.6400000   15.4210000  
C 17.9940000   21.2910000   15.3980000  
C 17.6610000   20.4450000   16.4580000  
C 16.1220000   23.2180000   18.6670000  
C 15.8490000   24.4230000   18.0500000  
N 16.4530000   24.4230000   16.7830000  
O 14.4970000   25.2800000   19.8240000  
C 14.9870000   25.4930000   18.5870000  
O 14.7790000   26.5770000   18.0160000  
O 18.6280000   20.8250000   14.2430000  
O 18.0480000   19.1330000   16.3950000  
H 15.8590000   22.8270000   19.6510000  
H 14.8030000   24.4050000   20.1160000  
H 16.2880000   25.1450000   16.0580000  
H 18.6650000   19.8950000   14.3450000  
H 17.9240000   18.7500000   17.3290000  
H 17.7850000   23.2600000   14.5070000  
