76
001 
C 11.5300000   21.0640000   16.3460000  
C 10.3630000   21.7940000   16.9160000  
C 10.3810000   21.9280000   18.3190000  
C 11.4000000   21.4310000   19.0990000  
C 12.5960000   20.7600000   18.5750000  
C 12.6220000   20.5290000   17.1930000  
C  9.4180000   22.4540000   19.1670000  
C  9.8750000   22.1850000   20.4290000  
N 11.1760000   21.5600000   20.4000000  
O  7.8330000   22.8070000   21.4080000  
C  9.1170000   22.3850000   21.6600000  
O  9.5050000   22.1470000   22.8030000  
O 13.5900000   19.8810000   16.5310000  
O 11.6700000   20.9300000   15.1650000  
H  9.7030000   22.2450000   16.1390000  
H  8.5610000   23.1040000   18.8580000  
H  7.8960000   23.0310000   20.4960000  
H 14.1510000   19.3460000   17.1760000  
C 13.5300000   20.0160000   19.3830000  
C 13.5640000   18.6340000   19.4060000  
C 14.3240000   17.9680000   20.3880000  
C 15.2090000   18.5250000   21.2440000  
C 15.3630000   19.9270000   21.0700000  
C 14.5120000   20.6760000   20.2320000  
C 12.6910000   17.6390000   18.7790000  
C 13.0810000   16.4220000   19.3180000  
N 13.9710000   16.6410000   20.3770000  
O 12.0570000   15.1290000   17.6620000  
C 12.6060000   15.0810000   18.8710000  
O 12.6230000   14.0170000   19.4820000  
O 16.3230000   20.6720000   21.7830000  
O 14.7100000   22.0170000   20.1130000  
H 12.0210000   17.8500000   17.9150000  
H 12.1790000   16.0700000   17.4190000  
H 14.4620000   15.8390000   20.9060000  
H 16.5480000   20.3280000   22.6430000  
H 15.4020000   22.2440000   20.7900000  
C 16.0130000   17.6750000   22.1740000  
C 17.3430000   17.2850000   21.8040000  
C 18.1830000   16.6220000   22.6400000  
C 17.7760000   16.2960000   23.9650000  
C 16.4130000   16.6530000   24.3290000  
C 15.5620000   17.2830000   23.4820000  
C 18.1620000   17.5100000   20.5980000  
C 19.4600000   17.0340000   20.8970000  
N 19.4030000   16.4080000   22.1450000  
O 20.5110000   18.2100000   19.2120000  
C 20.7120000   17.1690000   20.1040000  
O 21.6680000   16.4210000   20.2830000  
O 16.1400000   16.4320000   25.6670000  
O 14.3180000   17.6680000   23.8940000  
H 17.8640000   18.0790000   19.7710000  
H 19.7650000   18.6950000   19.4480000  
H 20.2370000   16.0240000   22.6070000  
H 15.4300000   17.0260000   25.9330000  
H 13.9710000   18.0620000   23.0690000  
C 18.7960000   15.6950000   24.8380000  
C 19.8620000   16.4860000   25.4080000  
C 20.8370000   15.8640000   26.1740000  
C 20.8130000   14.4650000   26.4600000  
C 19.6680000   13.7310000   26.0590000  
C 18.7110000   14.3640000   25.2500000  
C 20.2180000   17.8370000   25.1980000  
C 21.5020000   17.9670000   25.7520000  
N 21.8700000   16.7490000   26.4500000  
O 21.8170000   20.3190000   25.2670000  
C 22.4170000   19.1910000   25.7310000  
O 23.4930000   19.2210000   26.2900000  
O 19.7210000   12.3470000   26.1620000  
O 17.6570000   13.6620000   24.7310000  
H 19.6120000   18.5990000   24.6160000  
H 20.8780000   20.2110000   25.1900000  
H 22.6150000   16.6680000   27.1490000  
H 18.9500000   11.9650000   25.8130000  
H 17.0420000   14.2460000   24.3800000  
H 21.6580000   13.9820000   27.0060000  
