76
001 
C 12.9440000   12.7900000   17.4000000  
C 11.7450000   13.3830000   16.6670000  
C 11.5850000   14.7050000   16.6920000  
C 12.3020000   15.6150000   17.5500000  
C 13.3190000   15.1170000   18.3690000  
C 13.6210000   13.7320000   18.3170000  
C 10.7160000   15.4830000   15.8810000  
C 10.9700000   16.8150000   16.2220000  
N 11.9830000   16.8440000   17.1880000  
O  9.3430000   17.6670000   14.6180000  
C 10.2790000   18.0000000   15.5630000  
O 10.5560000   19.0990000   15.8730000  
O 14.5190000   13.1380000   19.1060000  
O 13.1350000   11.5620000   17.3290000  
H 11.1770000   12.7290000   16.1170000  
H 10.0920000   14.9960000   15.1140000  
H  9.3310000   16.7270000   14.7240000  
H 14.9650000   13.9050000   19.5740000  
C 14.1330000   15.9770000   19.2350000  
C 13.5800000   16.6370000   20.3740000  
C 14.2960000   17.5200000   21.1070000  
C 15.6270000   17.9260000   20.9280000  
C 16.2700000   17.2260000   19.8840000  
C 15.4950000   16.3340000   18.9880000  
C 12.1660000   16.7510000   20.8370000  
C 12.1640000   17.6930000   21.8480000  
N 13.4830000   18.1080000   22.0500000  
O  9.9170000   17.5140000   22.5020000  
C 11.0640000   18.1110000   22.7980000  
O 11.1740000   18.9800000   23.5880000  
O 17.5340000   17.5570000   19.4970000  
O 16.0250000   15.9960000   17.8060000  
H 11.3420000   16.1760000   20.5160000  
H 10.1770000   16.8060000   21.9130000  
H 13.8940000   18.7780000   22.6560000  
H 17.9300000   18.3090000   20.0090000  
H 16.7540000   16.6190000   17.5710000  
C 16.2930000   18.7900000   21.9290000  
C 17.3900000   18.3180000   22.6930000  
C 17.7960000   18.9750000   23.8160000  
C 17.3860000   20.2300000   24.1880000  
C 16.3490000   20.7490000   23.3320000  
C 15.8040000   20.0400000   22.2630000  
C 18.1150000   17.1000000   22.5920000  
C 18.9810000   17.0990000   23.7470000  
N 18.7550000   18.2450000   24.5380000  
O 20.0470000   15.0670000   23.1960000  
C 19.8560000   15.9940000   24.1350000  
O 20.4070000   15.8460000   25.2450000  
O 15.9090000   21.9970000   23.6460000  
O 14.7860000   20.5650000   21.4880000  
H 17.8330000   16.2260000   21.9800000  
H 19.7010000   15.4040000   22.2790000  
H 19.2190000   18.5780000   25.3710000  
H 15.0690000   22.1630000   23.0980000  
H 14.6500000   20.0340000   20.7200000  
C 17.9880000   20.9860000   25.3290000  
C 19.3310000   21.3820000   25.1610000  
C 19.9820000   21.9450000   26.1750000  
C 19.3640000   22.2060000   27.3650000  
C 17.9980000   21.9770000   27.5850000  
C 17.2890000   21.3360000   26.5050000  
C 20.3070000   21.2350000   24.1370000  
C 21.4080000   22.0320000   24.4910000  
N 21.2380000   22.2450000   25.8410000  
O 22.6220000   21.7160000   22.4590000  
C 22.6680000   22.2250000   23.7260000  
O 23.6510000   22.7640000   24.1060000  
O 17.4470000   22.2180000   28.7670000  
O 15.9990000   20.9490000   26.6610000  
H 20.1650000   20.7870000   23.1740000  
H 21.6800000   21.5280000   22.2850000  
H 21.9440000   22.6590000   26.4420000  
H 16.5090000   22.0290000   28.6590000  
H 15.6850000   20.6860000   25.7240000  
H 20.0570000   22.5140000   28.1650000  
