76
001 
C 16.1440000   20.5620000   28.6270000  
C 14.7820000   20.9100000   29.0550000  
C 13.7400000   20.8710000   28.1670000  
C 13.7770000   20.4070000   26.8810000  
C 15.0690000   19.8940000   26.3660000  
C 16.1640000   19.9440000   27.2320000  
C 12.3710000   21.0730000   28.4660000  
C 11.6500000   20.6350000   27.3330000  
N 12.5950000   20.2250000   26.3830000  
O  9.5900000   21.4240000   28.0990000  
C 10.2440000   20.8140000   27.0850000  
O  9.6660000   20.3850000   26.0380000  
O 17.3680000   19.4450000   26.9480000  
O 17.0940000   20.4860000   29.3860000  
H 14.5810000   21.0430000   30.0790000  
H 11.9540000   21.3940000   29.4270000  
H 10.2240000   21.7100000   28.7630000  
H 17.3120000   18.9720000   26.1210000  
C 15.1850000   19.3480000   25.0860000  
C 15.7400000   20.0890000   24.0440000  
C 15.7120000   19.6620000   22.7230000  
C 15.1940000   18.4010000   22.3260000  
C 14.6450000   17.6250000   23.4280000  
C 14.6880000   18.0260000   24.7750000  
C 16.3890000   21.3670000   24.0400000  
C 16.7690000   21.6410000   22.6900000  
N 16.2690000   20.6210000   21.9140000  
O 17.7030000   23.7840000   23.1590000  
C 17.4390000   22.8030000   22.2060000  
O 17.7990000   22.9890000   21.1010000  
O 14.3260000   16.3520000   23.3030000  
O 14.1120000   17.3160000   25.7930000  
H 16.4730000   21.9470000   24.9520000  
H 17.3800000   23.5240000   24.0680000  
H 16.4080000   20.5510000   20.8960000  
H 14.3050000   16.1270000   22.2880000  
H 13.8140000   16.4310000   25.4310000  
C 15.5010000   17.8740000   21.0210000  
C 16.7750000   17.8360000   20.4050000  
C 16.9530000   17.5370000   19.0550000  
C 15.9370000   17.0130000   18.2080000  
C 14.6590000   16.9770000   18.8300000  
C 14.4150000   17.4380000   20.1810000  
C 18.0330000   18.2160000   20.8760000  
C 18.8590000   18.1460000   19.7690000  
N 18.2260000   17.6450000   18.6630000  
O 20.8100000   18.8490000   20.9450000  
C 20.2500000   18.5110000   19.7830000  
O 20.9350000   18.5520000   18.8260000  
O 13.6860000   16.3580000   18.1100000  
O 13.2060000   17.2440000   20.7340000  
H 18.3830000   18.3360000   21.9200000  
H 20.0060000   18.8740000   21.5010000  
H 18.5660000   17.4860000   17.7790000  
H 12.9600000   16.1950000   18.6990000  
H 13.0930000   17.9140000   21.4250000  
C 16.2000000   16.5070000   16.8970000  
C 16.7130000   15.2370000   16.7430000  
C 16.7520000   14.6580000   15.4670000  
C 16.3400000   15.3160000   14.3250000  
C 15.7170000   16.5500000   14.4940000  
C 15.6840000   17.1710000   15.7720000  
C 17.1750000   14.2440000   17.6670000  
C 17.5810000   13.1590000   16.9420000  
N 17.3360000   13.4370000   15.5890000  
O 18.2520000   11.9100000   18.8100000  
C 18.2950000   11.9340000   17.4850000  
O 18.8220000   11.0320000   16.8110000  
O 15.0470000   17.0760000   13.4480000  
O 15.0700000   18.3900000   16.0030000  
H 17.3250000   14.3710000   18.7350000  
H 17.5780000   12.6080000   18.8560000  
H 17.6520000   12.8930000   14.8200000  
H 14.9190000   18.0420000   13.6970000  
H 15.1040000   18.6310000   16.9380000  
H 16.4070000   14.9560000   13.2980000  
