76
001 
C 15.5700000   23.0930000   27.3340000  
C 14.2050000   23.1340000   27.7650000  
C 13.2150000   22.4350000   27.0630000  
C 13.5640000   21.4890000   26.1090000  
C 14.9450000   21.4000000   25.6860000  
C 15.9210000   22.2210000   26.1920000  
C 11.8260000   22.2480000   27.3330000  
C 11.4830000   21.2360000   26.4650000  
N 12.5620000   20.8070000   25.6900000  
O  9.2990000   21.0970000   27.2280000  
C 10.1740000   20.6740000   26.3160000  
O  9.9410000   19.9300000   25.4570000  
O 17.1700000   22.2510000   25.7230000  
O 16.4310000   23.6930000   27.9420000  
H 13.9970000   23.8150000   28.5990000  
H 11.1920000   22.9020000   27.9780000  
H  9.7780000   21.8410000   27.6620000  
H 17.1940000   21.8450000   24.8080000  
C 15.2770000   20.4830000   24.6490000  
C 14.7390000   20.6620000   23.3680000  
C 15.0210000   19.7870000   22.3860000  
C 15.8700000   18.6760000   22.5670000  
C 16.4640000   18.4520000   23.8530000  
C 16.0780000   19.3270000   24.8990000  
C 13.8520000   21.7290000   22.7710000  
C 13.7630000   21.4780000   21.3660000  
N 14.4660000   20.2610000   21.1570000  
O 12.3680000   23.2240000   20.7740000  
C 13.1540000   22.2170000   20.3110000  
O 13.1830000   21.9500000   19.1350000  
O 17.3260000   17.3770000   24.0460000  
O 16.5130000   19.1110000   26.1310000  
H 13.4970000   22.5850000   23.3490000  
H 12.6390000   23.3610000   21.7210000  
H 14.4470000   19.8560000   20.2610000  
H 17.5650000   16.9240000   23.2900000  
H 17.0290000   18.3010000   26.1050000  
C 16.1790000   17.7380000   21.4690000  
C 17.1980000   18.0130000   20.5260000  
C 17.4580000   17.1370000   19.5160000  
C 16.7670000   15.9430000   19.2930000  
C 15.8020000   15.6000000   20.2790000  
C 15.5050000   16.5140000   21.3090000  
C 18.1530000   19.0630000   20.4240000  
C 18.9480000   18.7520000   19.3000000  
N 18.5510000   17.4910000   18.7520000  
O 20.0890000   20.8440000   19.1740000  
C 19.9130000   19.6280000   18.6350000  
O 20.4820000   19.1910000   17.6720000  
O 15.1500000   14.4430000   20.2580000  
O 14.4710000   16.3500000   22.1550000  
H 18.1440000   20.0210000   20.9580000  
H 19.6020000   20.8330000   19.9760000  
H 18.9140000   16.9960000   17.9450000  
H 14.3170000   14.5600000   20.8010000  
H 14.5560000   17.0710000   22.8120000  
C 17.1200000   15.1370000   18.0490000  
C 17.5770000   13.8090000   18.1160000  
C 17.9630000   13.0960000   16.9640000  
C 17.7760000   13.5890000   15.6780000  
C 17.1910000   14.8970000   15.5800000  
C 16.8840000   15.6990000   16.7410000  
C 17.6850000   12.8660000   19.2300000  
C 18.0950000   11.6150000   18.6520000  
N 18.2670000   11.7400000   17.3440000  
O 18.0160000   10.4420000   20.7010000  
C 18.2270000   10.3550000   19.4020000  
O 18.5770000    9.2900000   18.9520000  
O 17.0230000   15.4920000   14.2690000  
O 16.2590000   16.9310000   16.6150000  
H 17.4470000   13.0470000   20.2590000  
H 17.8480000   11.3720000   20.8720000  
H 18.5470000   10.9570000   16.7180000  
H 16.6430000   16.3760000   14.4760000  
H 15.9570000   17.2870000   17.5040000  
H 17.9160000   12.9150000   14.7950000  
