76
001 
C 12.5360000   24.4890000   24.8320000  
C 11.4470000   24.7630000   23.8600000  
C 11.0920000   23.8260000   22.9090000  
C 11.8470000   22.6490000   22.7590000  
C 13.0350000   22.4160000   23.5810000  
C 13.3610000   23.3040000   24.5530000  
C 10.0330000   23.7650000   21.9100000  
C 10.1600000   22.5470000   21.2830000  
N 11.3050000   21.8190000   21.8110000  
O  8.1650000   22.6470000   20.0530000  
C  9.3810000   22.0670000   20.1130000  
O  9.7890000   21.1350000   19.4820000  
O 14.3620000   23.0000000   25.4070000  
O 12.7840000   25.3270000   25.7090000  
H 10.8510000   25.5870000   24.1600000  
H  9.2910000   24.5290000   21.7480000  
H  8.0390000   23.1810000   20.8680000  
H 14.2430000   22.0350000   25.7160000  
C 13.7600000   21.1120000   23.3260000  
C 14.0000000   20.7210000   21.9990000  
C 14.5540000   19.5420000   21.6850000  
C 15.0550000   18.6170000   22.6120000  
C 14.7400000   18.8740000   23.9430000  
C 14.2040000   20.1580000   24.2710000  
C 14.1280000   21.4500000   20.7350000  
C 14.7670000   20.6060000   19.7820000  
N 14.8720000   19.3810000   20.3780000  
O 15.0850000   22.2850000   18.1970000  
C 15.1840000   20.9350000   18.4640000  
O 15.6640000   20.1270000   17.6490000  
O 15.1920000   18.0460000   24.9520000  
O 13.9180000   20.3180000   25.6520000  
H 13.8940000   22.5490000   20.7300000  
H 14.6050000   22.5680000   18.9330000  
H 15.2250000   18.5160000   19.9470000  
H 15.4740000   17.1950000   24.4640000  
H 14.3390000   19.5550000   26.0400000  
C 15.7020000   17.3640000   22.1910000  
C 16.9200000   17.3870000   21.4900000  
C 17.5450000   16.2640000   20.9910000  
C 17.1320000   14.9060000   21.2870000  
C 15.8400000   14.8830000   21.9450000  
C 15.1320000   16.0730000   22.3410000  
C 17.9040000   18.4410000   21.2670000  
C 18.9630000   17.8790000   20.5540000  
N 18.7350000   16.5000000   20.3710000  
O 20.1710000   19.9570000   20.2970000  
C 20.0340000   18.6710000   19.9370000  
O 20.8290000   18.1000000   19.1600000  
O 15.3070000   13.6730000   22.3770000  
O 13.8580000   15.9410000   22.8110000  
H 17.7750000   19.4910000   21.3730000  
H 19.4310000   20.2040000   20.8650000  
H 19.2580000   15.8530000   19.7890000  
H 14.4890000   13.9600000   22.7930000  
H 13.4630000   16.8360000   23.0510000  
C 17.8900000   13.6780000   20.7860000  
C 19.2060000   13.4350000   21.2060000  
C 19.9500000   12.4410000   20.6400000  
C 19.4720000   11.5710000   19.6960000  
C 18.1740000   11.8010000   19.2420000  
C 17.3480000   12.7800000   19.8350000  
C 20.0560000   14.0980000   22.2300000  
C 21.2060000   13.4310000   22.2750000  
N 21.1830000   12.4400000   21.1990000  
O 22.2680000   14.4680000   24.1130000  
C 22.3650000   13.5420000   23.1680000  
O 23.3050000   12.7960000   23.1000000  
O 17.7610000   10.9860000   18.2210000  
O 16.0380000   12.9720000   19.4540000  
H 19.6970000   14.8300000   22.9280000  
H 21.3970000   14.8390000   24.1290000  
H 21.9510000   11.8510000   21.0020000  
H 16.8540000   11.1320000   17.8840000  
H 15.5630000   13.5680000   20.0040000  
H 20.1070000   10.7540000   19.3370000  
