76
001 
C 12.1690000   23.3160000   17.8370000  
C 10.8860000   23.5590000   18.4740000  
C 10.4890000   22.9240000   19.5960000  
C 11.2520000   21.8800000   20.1780000  
C 12.5120000   21.6140000   19.5880000  
C 12.9560000   22.2550000   18.4800000  
C  9.2810000   22.9520000   20.2830000  
C  9.4950000   22.0930000   21.3820000  
N 10.7050000   21.4420000   21.2970000  
O  7.5350000   22.8070000   22.5200000  
C  8.5660000   21.9580000   22.4860000  
O  8.6760000   21.0640000   23.2520000  
O 14.1640000   22.0390000   17.8690000  
O 12.5000000   23.8890000   16.8210000  
H 10.1590000   24.2440000   17.9350000  
H  8.3720000   23.4010000   20.0110000  
H  7.6610000   23.4150000   21.7320000  
H 14.4730000   21.1520000   17.9180000  
C 13.4050000   20.5700000   20.2340000  
C 13.2450000   19.2450000   19.9520000  
C 14.0720000   18.3150000   20.4800000  
C 15.2020000   18.6070000   21.3500000  
C 15.2900000   19.9800000   21.7290000  
C 14.4370000   20.9320000   21.1670000  
C 12.3720000   18.5670000   18.9460000  
C 12.7840000   17.2570000   18.9250000  
N 13.8810000   17.1120000   19.8720000  
O 11.2130000   16.4370000   17.2850000  
C 12.1580000   16.1510000   18.2020000  
O 12.4720000   14.9910000   18.2690000  
O 16.2880000   20.3960000   22.5630000  
O 14.5960000   22.2570000   21.4550000  
H 11.3900000   18.9500000   18.6150000  
H 11.1850000   17.3770000   17.2960000  
H 14.2980000   16.2060000   20.1360000  
H 16.8860000   19.5890000   22.6980000  
H 15.1750000   22.3080000   22.2130000  
C 16.1650000   17.5830000   21.8310000  
C 17.5280000   17.6020000   21.6140000  
C 18.3790000   16.6830000   22.1330000  
C 17.9750000   15.7640000   23.0820000  
C 16.5910000   15.7790000   23.3830000  
C 15.7500000   16.7010000   22.8030000  
C 18.3510000   18.4760000   20.7610000  
C 19.6530000   18.0110000   20.7720000  
N 19.6590000   16.9260000   21.6330000  
O 20.6360000   19.5770000   19.3340000  
C 20.8200000   18.4050000   19.9620000  
O 21.8210000   17.7280000   19.9280000  
O 16.0810000   14.8690000   24.3040000  
O 14.4120000   16.5790000   23.0310000  
H 17.9620000   19.2850000   20.1260000  
H 19.7340000   19.8160000   19.6810000  
H 20.4770000   16.5040000   22.0270000  
H 15.2750000   15.2340000   24.6690000  
H 13.9070000   17.3830000   23.0020000  
C 18.9720000   14.7250000   23.6010000  
C 20.1160000   15.1450000   24.4160000  
C 20.9960000   14.1910000   24.9400000  
C 20.8260000   12.8200000   24.6830000  
C 19.7150000   12.4540000   23.8990000  
C 18.7680000   13.3860000   23.4620000  
C 20.5700000   16.4020000   24.8800000  
C 21.6030000   16.2380000   25.7540000  
N 21.8910000   14.8320000   25.7810000  
O 22.3040000   18.5830000   26.2150000  
C 22.3850000   17.2250000   26.5230000  
O 23.0680000   16.8100000   27.4170000  
O 19.6220000   11.1060000   23.6750000  
O 17.6770000   12.8530000   22.9260000  
H 20.0720000   17.3410000   24.7250000  
H 21.6120000   18.6470000   25.5570000  
H 22.4490000   14.4050000   26.5230000  
H 19.2410000   10.9760000   22.7450000  
H 17.0070000   13.5810000   22.7330000  
H 21.5370000   12.1260000   25.0980000  
