76
001 
C 13.6820000   12.6140000   26.3020000  
C 14.9500000   11.9270000   26.6120000  
C 16.0160000   12.2810000   25.8800000  
C 16.0420000   13.2990000   24.9360000  
C 14.8730000   14.0140000   24.5520000  
C 13.6550000   13.7030000   25.2280000  
C 17.2830000   11.6510000   25.8510000  
C 17.9940000   12.3820000   24.9100000  
N 17.2510000   13.3690000   24.3490000  
O 19.8960000   11.1350000   25.4330000  
C 19.4140000   12.1620000   24.6910000  
O 20.1210000   12.7080000   23.9160000  
O 12.5400000   14.4520000   25.1830000  
O 12.7050000   12.2760000   26.9500000  
H 14.8600000   11.2020000   27.3940000  
H 17.5820000   10.8070000   26.4310000  
H 19.0680000   10.9240000   25.9150000  
H 12.7080000   15.2480000   24.6920000  
C 15.0010000   15.2220000   23.7210000  
C 14.4550000   15.2720000   22.4290000  
C 14.6360000   16.4100000   21.7050000  
C 15.4370000   17.5550000   21.9840000  
C 16.1470000   17.4920000   23.2090000  
C 15.8260000   16.3430000   24.0810000  
C 13.6940000   14.3760000   21.6470000  
C 13.3960000   15.0830000   20.4920000  
N 13.9920000   16.3450000   20.5040000  
O 12.0190000   13.4270000   19.5130000  
C 12.5750000   14.6410000   19.4500000  
O 12.4920000   15.3630000   18.4550000  
O 17.0620000   18.4090000   23.6110000  
O 16.5440000   16.3140000   25.3180000  
H 13.4820000   13.3590000   21.9610000  
H 12.1390000   13.0560000   20.4000000  
H 13.7440000   17.0590000   19.8770000  
H 17.1290000   18.9840000   22.8270000  
H 16.9250000   17.2030000   25.3580000  
C 15.5100000   18.6900000   21.0710000  
C 15.0220000   19.9580000   21.4210000  
C 15.2100000   21.0170000   20.6100000  
C 15.8390000   20.9890000   19.3130000  
C 16.2860000   19.7260000   18.9440000  
C 16.1060000   18.5740000   19.8000000  
C 14.4290000   20.4470000   22.6850000  
C 14.2310000   21.8050000   22.4510000  
N 14.7380000   22.1790000   21.2170000  
O 13.5410000   22.4610000   24.6220000  
C 13.7860000   22.8160000   23.4080000  
O 13.4780000   23.9100000   23.0950000  
O 17.1300000   19.5400000   17.8580000  
O 16.6750000   17.4200000   19.4520000  
H 14.1340000   19.9090000   23.5490000  
H 13.8880000   21.6040000   24.6260000  
H 14.5840000   23.0750000   20.7900000  
H 17.6060000   18.7010000   17.9560000  
H 16.2550000   16.7400000   19.9820000  
C 16.0260000   22.1840000   18.5170000  
C 17.1500000   22.9300000   18.6160000  
C 17.2720000   24.2020000   17.9770000  
C 16.1980000   24.7670000   17.2940000  
C 14.9960000   24.0360000   17.1480000  
C 14.9740000   22.6860000   17.7080000  
C 18.3780000   22.7370000   19.3470000  
C 19.2140000   23.8110000   19.0350000  
N 18.5380000   24.6800000   18.1830000  
O 21.0280000   23.2690000   20.6210000  
C 20.6120000   24.0220000   19.5820000  
O 21.3150000   24.9270000   19.1080000  
O 13.8520000   24.5570000   16.5590000  
O 13.8580000   21.8880000   17.5890000  
H 18.5120000   21.8000000   19.9100000  
H 20.4060000   22.5490000   20.7930000  
H 18.9840000   25.3470000   17.5690000  
H 13.1160000   23.9550000   16.7360000  
H 14.1290000   21.0940000   17.9510000  
H 16.2890000   25.7750000   16.8650000  
