76
001 
C 14.6020000   14.5470000   28.2100000  
C 14.1440000   15.6580000   29.0880000  
C 14.0570000   16.8850000   28.6050000  
C 14.4090000   17.2750000   27.2930000  
C 14.8100000   16.2890000   26.3580000  
C 14.9220000   15.0000000   26.8080000  
C 13.7260000   18.0860000   29.2940000  
C 13.9770000   19.0920000   28.3630000  
N 14.3710000   18.5870000   27.1010000  
O 13.2770000   20.8900000   29.8130000  
C 13.9000000   20.5940000   28.6270000  
O 14.1890000   21.4400000   27.7750000  
O 15.3620000   14.0490000   25.8760000  
O 14.6050000   13.3910000   28.5350000  
H 13.8960000   15.4610000   30.0890000  
H 13.4200000   18.2700000   30.2860000  
H 13.0260000   19.9910000   30.0820000  
H 15.5210000   14.4980000   25.0190000  
C 15.1240000   16.7640000   24.9800000  
C 16.4890000   16.8920000   24.5600000  
C 16.7570000   17.6080000   23.4000000  
C 15.8210000   18.0790000   22.5420000  
C 14.4790000   17.9190000   22.9800000  
C 14.1300000   17.3560000   24.1970000  
C 17.6790000   16.4310000   25.1140000  
C 18.7210000   16.8300000   24.3400000  
N 18.1430000   17.4730000   23.1820000  
O 20.3830000   15.6300000   25.4710000  
C 20.1790000   16.5210000   24.4910000  
O 21.1150000   16.8340000   23.7690000  
O 13.4950000   18.5200000   22.2340000  
O 12.8220000   17.2020000   24.6070000  
H 17.7200000   15.7880000   26.0260000  
H 19.4860000   15.3860000   25.8200000  
H 18.7550000   18.0730000   22.6020000  
H 13.8430000   19.0190000   21.5190000  
H 12.3690000   18.1240000   24.5460000  
C 16.1220000   18.8030000   21.2460000  
C 16.5660000   18.0630000   20.1340000  
C 16.6870000   18.6720000   18.9250000  
C 16.3880000   20.0640000   18.6650000  
C 16.2100000   20.8140000   19.8680000  
C 15.9800000   20.2140000   21.0870000  
C 16.8370000   16.6490000   19.8630000  
C 16.9060000   16.5450000   18.5100000  
N 16.8070000   17.7780000   17.9120000  
O 17.2250000   14.1960000   18.4310000  
C 17.0960000   15.2860000   17.6920000  
O 17.0670000   15.2950000   16.4320000  
O 16.1630000   22.1570000   19.8540000  
O 15.5390000   20.9520000   22.1420000  
H 16.8650000   15.8740000   20.6300000  
H 17.1890000   14.5170000   19.3620000  
H 16.5370000   17.9520000   16.8700000  
H 15.6690000   22.4860000   20.6840000  
H 15.9150000   20.5090000   22.9190000  
C 16.4370000   20.7310000   17.3250000  
C 15.5840000   20.2560000   16.2660000  
C 15.8030000   20.5280000   14.9160000  
C 16.8030000   21.3940000   14.5230000  
C 17.6450000   21.9330000   15.5600000  
C 17.5270000   21.5480000   16.9010000  
C 14.5180000   19.2590000   16.2630000  
C 14.0370000   19.1840000   14.9300000  
N 14.8280000   20.0020000   14.1400000  
O 12.6060000   17.3000000   15.0650000  
C 12.9430000   18.3780000   14.3510000  
O 12.3910000   18.5100000   13.2520000  
O 18.6720000   22.7780000   15.1970000  
O 18.3620000   22.0340000   17.8030000  
H 14.0410000   18.7620000   17.0960000  
H 13.1040000   17.3750000   15.9000000  
H 14.6550000   20.1990000   13.2010000  
H 19.0950000   22.9480000   16.0290000  
H 17.9390000   21.9170000   18.6690000  
H 16.9790000   21.6310000   13.5170000  
