76
001 
C 13.4760000   24.5280000   24.6950000  
C 12.0040000   24.5970000   24.5920000  
C 11.2310000   23.5500000   24.1470000  
C 11.8100000   22.3160000   23.6580000  
C 13.2460000   22.1350000   23.7800000  
C 14.0140000   23.1910000   24.2350000  
C  9.8450000   23.3780000   23.8560000  
C  9.7170000   22.0990000   23.2300000  
N 10.9660000   21.4710000   23.0470000  
O  7.3930000   22.2370000   22.9710000  
C  8.4890000   21.6090000   22.5340000  
O  8.4350000   20.6440000   21.8170000  
O 15.4130000   23.1960000   24.2920000  
O 14.1920000   25.3800000   25.1340000  
H 11.6330000   25.5920000   24.8760000  
H  9.0310000   23.9920000   24.1100000  
H  7.6890000   22.9900000   23.4860000  
H 15.7080000   22.2240000   24.3650000  
C 13.7900000   20.9510000   23.1820000  
C 14.1340000   20.8880000   21.8320000  
C 14.8040000   19.8030000   21.2960000  
C 15.2030000   18.6840000   22.0060000  
C 14.8170000   18.6990000   23.4110000  
C 14.1090000   19.7960000   23.9530000  
C 14.0180000   21.9050000   20.8330000  
C 14.6590000   21.4250000   19.7340000  
N 15.1760000   20.0960000   20.0410000  
O 14.3670000   23.3490000   18.3500000  
C 15.0230000   22.1970000   18.4940000  
O 15.7860000   21.7210000   17.6430000  
O 15.4210000   17.7890000   24.2140000  
O 13.9210000   19.7420000   25.2320000  
H 13.6460000   22.9400000   20.9950000  
H 13.7040000   23.2370000   18.9670000  
H 15.6460000   19.3500000   19.4720000  
H 15.8060000   17.1340000   23.5910000  
H 13.9370000   18.8650000   25.5360000  
C 15.9250000   17.5290000   21.3920000  
C 17.3380000   17.3950000   21.3180000  
C 17.9030000   16.2530000   20.8260000  
C 17.2140000   15.1740000   20.2170000  
C 15.7830000   15.3290000   20.2860000  
C 15.1680000   16.4200000   20.8930000  
C 18.4410000   18.3230000   21.7060000  
C 19.6380000   17.6320000   21.4240000  
N 19.3340000   16.4290000   20.7810000  
O 20.9970000   19.3050000   22.4880000  
C 20.9890000   18.2380000   21.6140000  
O 22.0270000   17.6940000   21.2850000  
O 14.9750000   14.3410000   19.8130000  
O 13.8560000   16.4040000   21.0430000  
H 18.3510000   19.3320000   22.0480000  
H 20.0660000   19.3590000   22.7460000  
H 19.9510000   15.7490000   20.4580000  
H 14.0600000   14.7310000   19.7540000  
H 13.5590000   17.2160000   21.5260000  
C 17.9690000   13.9970000   19.7010000  
C 18.9050000   13.3240000   20.5030000  
C 19.6320000   12.2480000   20.1080000  
C 19.4860000   11.8040000   18.7880000  
C 18.6150000   12.4750000   17.9200000  
C 17.8060000   13.5130000   18.3910000  
C 19.2360000   13.5760000   21.8580000  
C 20.1400000   12.5830000   22.2260000  
N 20.5070000   11.8730000   21.0950000  
O 20.2060000   13.0940000   24.5880000  
C 20.6100000   12.2610000   23.6050000  
O 21.2780000   11.3380000   23.9360000  
O 18.5730000   12.1630000   16.5870000  
O 16.8930000   14.0440000   17.5080000  
H 18.9170000   14.3720000   22.4840000  
H 19.9310000   13.8780000   24.1120000  
H 21.1290000   11.0510000   20.9800000  
H 18.0200000   12.8110000   16.1320000  
H 16.0580000   14.3070000   18.0590000  
H 20.1210000   11.0280000   18.4640000  
