76
001 
C 12.8510000   24.5720000   19.1930000  
C 11.8060000   24.9810000   20.0850000  
C 11.5410000   24.2360000   21.2000000  
C 12.1720000   23.0250000   21.5330000  
C 13.2760000   22.5580000   20.7060000  
C 13.5260000   23.2290000   19.5690000  
C 10.5660000   24.4310000   22.2260000  
C 10.7380000   23.3380000   23.1080000  
N 11.7300000   22.4710000   22.6560000  
O  9.0110000   24.0230000   24.6210000  
C  9.9780000   23.0970000   24.3740000  
O 10.2500000   22.1390000   25.0910000  
O 14.4290000   22.8430000   18.6650000  
O 13.1820000   25.2030000   18.2200000  
H 11.3810000   25.8720000   19.8220000  
H  9.7950000   25.2430000   22.3620000  
H  9.0470000   24.6860000   23.9170000  
H 15.3080000   22.5670000   18.9730000  
C 14.0810000   21.3870000   21.0980000  
C 13.5180000   20.1710000   21.1660000  
C 14.2370000   19.0570000   21.5190000  
C 15.6360000   19.1110000   21.9470000  
C 16.2360000   20.3850000   21.9360000  
C 15.4590000   21.5200000   21.4760000  
C 12.1890000   19.7640000   21.0120000  
C 12.0840000   18.4020000   21.2600000  
N 13.4100000   17.9650000   21.5680000  
O  9.7840000   18.1520000   20.9590000  
C 10.9210000   17.5320000   21.1520000  
O 10.9270000   16.3300000   21.3640000  
O 17.6180000   20.5290000   22.0850000  
O 16.1420000   22.6800000   21.4580000  
H 11.3520000   20.3990000   20.6890000  
H 10.0140000   19.0730000   21.1740000  
H 13.5810000   17.1870000   22.1140000  
H 17.9280000   19.6080000   22.1480000  
H 17.0780000   22.3580000   21.6560000  
C 16.5280000   17.8950000   22.1410000  
C 16.5630000   16.9220000   21.1010000  
C 17.3160000   15.7880000   21.2570000  
C 18.0500000   15.4900000   22.3790000  
C 18.1500000   16.4630000   23.3820000  
C 17.3720000   17.6870000   23.3150000  
C 15.9710000   16.8230000   19.7760000  
C 16.3560000   15.5820000   19.2780000  
N 17.1180000   14.9160000   20.2040000  
O 14.9380000   15.7430000   17.4520000  
C 15.8720000   14.9410000   18.0840000  
O 16.1730000   13.8080000   17.7710000  
O 18.9210000   16.2190000   24.4870000  
O 17.5010000   18.5930000   24.3820000  
H 15.3100000   17.5270000   19.3950000  
H 14.7220000   16.4500000   18.1860000  
H 17.4240000   13.9480000   20.1510000  
H 18.9320000   15.2760000   24.4440000  
H 16.7460000   19.2080000   24.3470000  
C 18.8600000   14.2320000   22.3980000  
C 20.2990000   14.2440000   22.4900000  
C 21.0300000   13.1380000   22.5920000  
C 20.4220000   11.9080000   22.6860000  
C 19.0230000   11.8080000   22.6020000  
C 18.2330000   12.9370000   22.5050000  
C 21.1960000   15.3250000   22.5400000  
C 22.4850000   14.7910000   22.6300000  
N 22.3820000   13.4160000   22.6180000  
O 23.4340000   16.9210000   22.6810000  
C 23.6360000   15.6040000   22.9510000  
O 24.6780000   15.1000000   23.3280000  
O 18.4390000   10.5570000   22.6160000  
O 16.8980000   12.7730000   22.4210000  
H 20.9300000   16.3830000   22.6860000  
H 22.6510000   16.9600000   22.1020000  
H 23.1150000   12.7400000   22.7050000  
H 19.1910000    9.9000000   22.6670000  
H 16.7320000   11.8040000   22.4220000  
H 21.0220000   10.9980000   22.7150000  
