76
001 
C 15.0810000   12.1590000   26.0140000  
C 15.3430000   11.0720000   25.0630000  
C 15.6130000   11.2980000   23.7560000  
C 15.6780000   12.5960000   23.2050000  
C 15.5530000   13.7350000   24.0890000  
C 15.3210000   13.5520000   25.4730000  
C 16.0480000   10.4240000   22.7590000  
C 16.1720000   11.2380000   21.5960000  
N 15.9290000   12.5660000   21.8300000  
O 16.7380000    9.4640000   20.1410000  
C 16.4050000   10.7240000   20.1770000  
O 16.4040000   11.4580000   19.1680000  
O 14.9760000   14.5170000   26.3300000  
O 14.8440000   11.9170000   27.1680000  
H 15.1600000   10.0780000   25.4330000  
H 16.2510000    9.3590000   22.8430000  
H 16.6260000    9.1570000   20.9830000  
H 14.9800000   15.3380000   25.8340000  
C 15.6380000   15.0620000   23.4090000  
C 14.6850000   15.4650000   22.4330000  
C 14.8130000   16.6060000   21.7950000  
C 15.6560000   17.6420000   22.1140000  
C 16.5840000   17.2780000   23.1520000  
C 16.6370000   16.0070000   23.7580000  
C 13.5370000   14.7870000   21.9390000  
C 13.0250000   15.6330000   20.9670000  
N 13.7540000   16.8150000   20.9130000  
O 11.1550000   14.2620000   20.3430000  
C 11.7990000   15.4410000   20.1920000  
O 11.3200000   16.2960000   19.4740000  
O 17.5300000   18.1540000   23.6590000  
O 17.5900000   15.6390000   24.7280000  
H 13.1470000   13.8520000   22.2590000  
H 11.7380000   13.6610000   20.8750000  
H 13.7070000   17.5250000   20.2450000  
H 17.4230000   19.0490000   23.2720000  
H 18.1340000   16.4940000   24.8910000  
C 15.6790000   19.0380000   21.4790000  
C 15.2430000   20.2170000   22.0860000  
C 15.4720000   21.3720000   21.3790000  
C 16.0250000   21.4110000   20.1090000  
C 16.3870000   20.2280000   19.4160000  
C 16.1950000   19.0530000   20.1050000  
C 14.6370000   20.5830000   23.3110000  
C 14.4990000   21.9790000   23.2700000  
N 14.8360000   22.4180000   21.9710000  
O 13.3130000   22.1650000   25.3150000  
C 13.8780000   22.8370000   24.2850000  
O 13.8300000   24.0250000   24.2120000  
O 16.7990000   20.2370000   18.1430000  
O 16.5140000   17.8630000   19.5190000  
H 14.4520000   19.9150000   24.0820000  
H 13.1980000   21.3150000   24.9650000  
H 14.8410000   23.3650000   21.6140000  
H 17.2830000   19.3490000   17.9550000  
H 16.5340000   17.0560000   20.0890000  
C 16.2010000   22.7510000   19.5290000  
C 17.4940000   23.3180000   19.6340000  
C 17.7570000   24.5970000   19.3200000  
C 16.7650000   25.3710000   18.6910000  
C 15.4480000   24.8550000   18.5310000  
C 15.1670000   23.5760000   19.0430000  
C 18.7040000   22.8130000   20.2420000  
C 19.6620000   23.7940000   20.0990000  
N 19.0570000   24.9520000   19.5060000  
O 21.1920000   22.4140000   21.2390000  
C 20.9630000   23.6300000   20.7080000  
O 21.8370000   24.4980000   20.7680000  
O 14.5340000   25.6070000   17.8270000  
O 13.8390000   23.1310000   18.8960000  
H 18.8470000   21.8060000   20.5860000  
H 20.3860000   21.8980000   21.0800000  
H 19.4520000   25.8470000   19.2650000  
H 13.7280000   25.1360000   18.0460000  
H 13.8480000   22.0980000   18.8910000  
H 17.0200000   26.3260000   18.2480000  
