76
001 
C 16.0930000   19.2170000   29.0780000  
C 14.8870000   19.9960000   29.4240000  
C 14.0470000   20.4470000   28.4520000  
C 14.2380000   20.2310000   27.1160000  
C 15.2880000   19.3220000   26.7410000  
C 16.2000000   18.8570000   27.6660000  
C 12.7920000   21.0270000   28.5810000  
C 12.2460000   21.2060000   27.3430000  
N 13.1760000   20.6670000   26.3830000  
O 10.3660000   22.5400000   28.1720000  
C 11.0570000   22.0730000   27.0660000  
O 10.6230000   22.2950000   25.9710000  
O 17.2430000   18.0780000   27.3370000  
O 16.8540000   18.7000000   29.9120000  
H 14.7560000   20.1790000   30.4830000  
H 12.4050000   21.3980000   29.5660000  
H 10.8960000   22.4460000   28.9590000  
H 17.0770000   17.7740000   26.4420000  
C 15.3850000   18.8450000   25.3750000  
C 15.8520000   19.7820000   24.4460000  
C 15.8400000   19.5350000   23.0860000  
C 15.6000000   18.2010000   22.5710000  
C 15.2100000   17.1950000   23.5690000  
C 15.1780000   17.5010000   24.9310000  
C 15.9720000   21.2530000   24.5180000  
C 16.1180000   21.6750000   23.2200000  
N 16.1000000   20.5920000   22.2560000  
O 15.7040000   23.9570000   23.8720000  
C 16.0230000   23.1610000   22.8490000  
O 16.0090000   23.4670000   21.6890000  
O 14.8630000   15.9910000   23.1130000  
O 14.6120000   16.5770000   25.8370000  
H 15.9720000   21.9220000   25.3290000  
H 15.5470000   23.2690000   24.5620000  
H 16.0880000   20.5680000   21.2270000  
H 15.0320000   15.9620000   22.1230000  
H 14.5140000   15.7680000   25.3350000  
C 15.6640000   17.8590000   21.0770000  
C 16.8300000   17.4420000   20.4100000  
C 16.7930000   17.1580000   19.0560000  
C 15.6390000   17.2100000   18.2100000  
C 14.4920000   17.6240000   18.8520000  
C 14.4420000   17.8610000   20.3180000  
C 18.2260000   17.2670000   20.7810000  
C 18.9270000   16.7910000   19.6890000  
N 18.0240000   16.7210000   18.6040000  
O 21.0640000   16.5570000   20.7570000  
C 20.3560000   16.4430000   19.6280000  
O 20.9540000   16.0730000   18.6450000  
O 13.3400000   17.7550000   18.0780000  
O 13.2130000   18.2930000   20.8210000  
H 18.6630000   17.3730000   21.7970000  
H 20.4340000   16.8920000   21.4580000  
H 18.2790000   16.3440000   17.7390000  
H 12.6780000   18.2010000   18.6320000  
H 13.2450000   18.7550000   21.6470000  
C 15.7820000   16.9970000   16.7190000  
C 16.2880000   15.7880000   16.2380000  
C 16.7420000   15.6110000   14.9740000  
C 16.6230000   16.6370000   14.0310000  
C 15.9960000   17.8040000   14.4020000  
C 15.7160000   18.0330000   15.7430000  
C 16.5740000   14.5410000   16.8910000  
C 17.3530000   13.7640000   16.0350000  
N 17.4210000   14.4020000   14.8040000  
O 17.7930000   12.0090000   17.6370000  
C 18.0100000   12.5180000   16.4100000  
O 18.7330000   11.8810000   15.6800000  
O 15.8280000   18.8020000   13.4990000  
O 15.3400000   19.2810000   16.1670000  
H 16.2350000   14.3980000   17.8770000  
H 17.3330000   12.7070000   18.1910000  
H 17.9360000   14.1180000   13.9490000  
H 15.3360000   19.5130000   13.9980000  
H 14.6800000   19.1910000   16.9010000  
H 17.0580000   16.5730000   13.0790000  
