76
001 
C 13.4360000   25.2420000   22.6210000  
C 12.5350000   25.1980000   23.8140000  
C 12.3940000   24.0480000   24.4780000  
C 12.9710000   22.8790000   24.0070000  
C 13.9190000   22.8150000   22.9180000  
C 14.1290000   23.9520000   22.2540000  
C 11.6200000   23.7430000   25.5870000  
C 11.8750000   22.4240000   25.8430000  
N 12.7440000   21.8830000   24.8850000  
O 10.5810000   22.5140000   27.8150000  
C 11.3310000   21.6960000   27.0320000  
O 11.3960000   20.4820000   27.2880000  
O 15.0290000   23.9800000   21.3140000  
O 13.5850000   26.3060000   22.0430000  
H 12.0630000   26.1450000   24.0540000  
H 10.9000000   24.4560000   26.0390000  
H 10.7780000   23.3580000   27.3670000  
H 15.3550000   23.0620000   21.4900000  
C 14.5190000   21.5630000   22.4870000  
C 13.7580000   20.7120000   21.6290000  
C 14.2030000   19.4960000   21.2700000  
C 15.3480000   18.8910000   21.7710000  
C 16.1830000   19.7110000   22.5690000  
C 15.7540000   21.0500000   23.0220000  
C 12.4810000   20.9190000   20.9010000  
C 12.2730000   19.7630000   20.1860000  
N 13.4390000   18.9450000   20.2400000  
O 10.0450000   20.2800000   19.6240000  
C 11.0150000   19.3710000   19.5140000  
O 10.8810000   18.3230000   18.8820000  
O 17.3700000   19.2240000   22.9100000  
O 16.5490000   21.8920000   23.7040000  
H 11.7490000   21.7290000   20.9830000  
H 10.4750000   21.0560000   20.0170000  
H 13.6140000   18.0730000   19.6590000  
H 17.4610000   18.3000000   22.6110000  
H 17.3890000   21.3820000   23.8530000  
C 15.7970000   17.4900000   21.4250000  
C 16.8290000   17.3030000   20.4940000  
C 17.3520000   16.1400000   20.2110000  
C 16.9280000   14.9240000   20.7840000  
C 15.8610000   15.0360000   21.7460000  
C 15.3160000   16.2760000   22.0510000  
C 17.5400000   18.3120000   19.7480000  
C 18.5340000   17.6720000   19.0110000  
N 18.4120000   16.3050000   19.3160000  
O 19.6220000   19.6160000   18.1580000  
C 19.6170000   18.2570000   18.2030000  
O 20.4770000   17.5560000   17.6370000  
O 15.3730000   13.9110000   22.4190000  
O 14.2970000   16.3670000   22.8770000  
H 17.3470000   19.3980000   19.8360000  
H 18.7450000   19.8910000   18.5580000  
H 19.1990000   15.6840000   19.0580000  
H 15.9400000   13.2010000   22.0050000  
H 14.1020000   17.2730000   23.1510000  
C 17.6250000   13.6620000   20.4230000  
C 19.0160000   13.5140000   20.6200000  
C 19.5360000   12.3150000   20.2050000  
C 18.8220000   11.2500000   19.5950000  
C 17.4180000   11.3650000   19.5040000  
C 16.8530000   12.6220000   19.9040000  
C 19.9950000   14.3370000   21.2610000  
C 21.1330000   13.5380000   21.4090000  
N 20.8340000   12.3250000   20.7660000  
O 22.6640000   15.1210000   22.3800000  
C 22.4070000   13.8430000   22.1270000  
O 23.2940000   13.0190000   22.3160000  
O 16.6380000   10.3780000   18.9530000  
O 15.4890000   12.8130000   19.6300000  
H 19.9340000   15.3210000   21.7460000  
H 21.8220000   15.5600000   22.1170000  
H 21.3670000   11.4420000   20.8090000  
H 15.7010000   10.7020000   18.9800000  
H 14.8750000   12.0650000   19.7310000  
H 19.3060000   10.2640000   19.3350000  
