76
001 
C 13.1010000   16.6070000   14.9830000  
C 11.6240000   16.7880000   14.9650000  
C 11.0810000   17.3150000   16.1360000  
C 11.8440000   17.7410000   17.2130000  
C 13.2770000   17.5440000   17.2330000  
C 13.8930000   16.9590000   16.1750000  
C  9.7500000   17.6980000   16.4850000  
C  9.8300000   18.2070000   17.7420000  
N 11.1710000   18.2840000   18.2260000  
O  7.4170000   18.6700000   18.0270000  
C  8.6760000   18.7430000   18.5960000  
O  8.8340000   19.1590000   19.7360000  
O 15.2420000   16.7600000   16.0490000  
O 13.5160000   16.0540000   13.9380000  
H 11.1260000   16.3670000   14.1160000  
H  8.8380000   17.4370000   15.9190000  
H  7.5950000   18.3520000   17.0760000  
H 15.7360000   17.2430000   16.7770000  
C 13.9950000   17.9080000   18.4740000  
C 13.6970000   17.3290000   19.6890000  
C 14.3510000   17.7230000   20.7860000  
C 15.1940000   18.8200000   20.9750000  
C 15.6360000   19.2880000   19.6920000  
C 14.9750000   18.9500000   18.5030000  
C 12.7800000   16.2720000   20.0790000  
C 12.8800000   16.1520000   21.4560000  
N 13.8680000   17.0160000   21.8880000  
O 11.2640000   14.4180000   21.8270000  
C 12.0660000   15.3900000   22.3690000  
O 12.1600000   15.5450000   23.5660000  
O 16.5660000   20.2060000   19.7210000  
O 15.3850000   19.6150000   17.3080000  
H 12.0910000   15.7640000   19.4420000  
H 11.4540000   14.4020000   20.9020000  
H 14.2450000   16.9510000   22.8600000  
H 16.9000000   20.4240000   20.6050000  
H 15.8780000   20.3970000   17.6210000  
C 15.9420000   19.1790000   22.2290000  
C 16.8110000   18.1810000   22.7340000  
C 17.5690000   18.4790000   23.8730000  
C 17.5980000   19.7090000   24.5310000  
C 16.6540000   20.6750000   24.1060000  
C 15.8090000   20.4200000   22.9100000  
C 17.3240000   16.9350000   22.1890000  
C 18.1790000   16.4180000   23.1420000  
N 18.3570000   17.3810000   24.1350000  
O 18.7170000   14.4650000   21.9150000  
C 18.8010000   15.1000000   23.1300000  
O 19.3920000   14.6420000   24.1040000  
O 16.5880000   21.8630000   24.7410000  
O 14.9450000   21.3660000   22.4920000  
H 16.9810000   16.4480000   21.2450000  
H 18.1950000   15.0130000   21.2980000  
H 19.0620000   17.3230000   24.8720000  
H 16.0110000   22.4430000   24.2710000  
H 14.5670000   21.1240000   21.5870000  
C 18.5420000   19.7950000   25.7680000  
C 19.9870000   19.7520000   25.5020000  
C 20.8200000   19.4860000   26.5690000  
C 20.3010000   19.1600000   27.8770000  
C 18.9530000   19.2400000   28.0860000  
C 18.0500000   19.6480000   27.0800000  
C 20.8430000   19.9920000   24.3400000  
C 22.1500000   19.8900000   24.8130000  
N 22.1170000   19.5210000   26.2200000  
O 23.3090000   20.3320000   22.8600000  
C 23.4350000   20.0290000   24.1270000  
O 24.4820000   19.8010000   24.6760000  
O 18.5220000   19.0060000   29.3640000  
O 16.7290000   19.7440000   27.2760000  
H 20.5000000   20.1830000   23.3230000  
H 22.3500000   20.3530000   22.6990000  
H 22.8790000   19.3090000   26.8820000  
H 17.6000000   19.3480000   29.3940000  
H 16.3420000   20.0030000   26.4840000  
H 21.0050000   18.9080000   28.6900000  
