76
001 
C 13.0860000   15.8800000   28.2520000  
C 14.1650000   15.8750000   29.1410000  
C 15.3980000   16.3780000   28.7560000  
C 15.6290000   16.9810000   27.5160000  
C 14.5890000   17.0270000   26.5150000  
C 13.3580000   16.4270000   26.8520000  
C 16.5870000   16.4010000   29.4790000  
C 17.5060000   16.7900000   28.5200000  
N 16.8980000   17.2240000   27.3400000  
O 19.4260000   16.4140000   29.9350000  
C 19.0060000   16.9970000   28.7950000  
O 19.7950000   17.6720000   28.1300000  
O 12.3670000   16.2640000   25.9960000  
O 11.9440000   15.5390000   28.5900000  
H 13.8510000   15.4250000   30.0660000  
H 16.7420000   16.0160000   30.5470000  
H 18.6180000   15.9640000   30.2580000  
H 12.3900000   16.8930000   25.3360000  
C 14.7740000   17.4490000   25.1310000  
C 15.7210000   16.8260000   24.3290000  
C 16.0690000   17.2310000   23.0880000  
C 15.4840000   18.3370000   22.4640000  
C 14.4100000   18.8820000   23.1820000  
C 14.0850000   18.5540000   24.5480000  
C 16.6320000   15.7110000   24.6490000  
C 17.5180000   15.5810000   23.6150000  
N 17.2020000   16.5420000   22.6560000  
O 18.8480000   13.8220000   24.5050000  
C 18.7430000   14.7150000   23.4890000  
O 19.4480000   14.7000000   22.5000000  
O 13.6490000   19.8150000   22.5150000  
O 13.1050000   19.3160000   25.1780000  
H 16.6360000   15.1880000   25.5980000  
H 18.0180000   14.0410000   24.9550000  
H 17.7100000   16.7080000   21.8290000  
H 13.8560000   19.7190000   21.5200000  
H 13.1480000   20.2190000   24.8170000  
C 15.8640000   18.7250000   21.1190000  
C 15.0260000   18.2670000   20.0380000  
C 15.4940000   18.4900000   18.8030000  
C 16.6260000   19.3220000   18.4790000  
C 17.3740000   19.8850000   19.5140000  
C 16.9700000   19.5820000   20.8490000  
C 13.7350000   17.6510000   19.9070000  
C 13.4070000   17.6220000   18.5470000  
N 14.5160000   18.1180000   17.8730000  
O 11.2940000   16.7480000   18.8230000  
C 12.1930000   17.1020000   17.9280000  
O 12.1720000   16.8280000   16.7270000  
O 18.3500000   20.7920000   19.2640000  
O 17.6460000   20.1870000   21.9080000  
H 13.1670000   17.2070000   20.7020000  
H 11.7200000   16.8360000   19.6950000  
H 14.6240000   18.3340000   16.8300000  
H 18.6340000   21.3300000   20.0910000  
H 17.3510000   19.9030000   22.8040000  
C 16.9080000   19.5540000   17.0280000  
C 16.4930000   20.7270000   16.3490000  
C 16.5220000   20.8200000   14.9880000  
C 16.9410000   19.6960000   14.2170000  
C 17.4040000   18.5380000   14.8550000  
C 17.5260000   18.5590000   16.2300000  
C 15.9830000   21.9580000   16.8430000  
C 15.5390000   22.6500000   15.6790000  
N 15.8170000   21.9570000   14.5230000  
O 14.5190000   24.2980000   17.0500000  
C 14.9350000   24.0110000   15.7670000  
O 14.7520000   24.7230000   14.8160000  
O 17.9070000   17.5280000   14.0760000  
O 18.0570000   17.4350000   16.8830000  
H 16.1850000   22.3250000   17.8250000  
H 14.8930000   23.5710000   17.5530000  
H 15.4830000   22.1510000   13.6240000  
H 18.1930000   16.7120000   14.5610000  
H 17.7080000   17.3850000   17.8390000  
H 16.8310000   19.7450000   13.1350000  
