76
001 
C 16.1060000   19.2490000   29.0630000  
C 14.7430000   19.1500000   29.5480000  
C 13.7310000   18.9500000   28.6430000  
C 13.9130000   18.8830000   27.2970000  
C 15.2750000   18.9180000   26.7770000  
C 16.3080000   19.0900000   27.5920000  
C 12.3410000   18.7970000   28.8100000  
C 11.8390000   18.6660000   27.5190000  
N 12.8630000   18.7320000   26.5600000  
O  9.5850000   18.5410000   28.2160000  
C 10.3930000   18.4600000   27.1690000  
O 10.0100000   18.4180000   26.0350000  
O 17.5420000   19.0880000   27.2030000  
O 17.0780000   19.4770000   29.8350000  
H 14.5810000   19.3600000   30.6190000  
H 11.8580000   18.7260000   29.7670000  
H 10.1400000   18.5920000   29.0230000  
H 17.4800000   18.7920000   26.2530000  
C 15.5790000   18.7670000   25.3700000  
C 16.2370000   19.8140000   24.6470000  
C 16.6530000   19.6340000   23.3560000  
C 16.1530000   18.5840000   22.5460000  
C 15.3750000   17.6370000   23.1390000  
C 15.1610000   17.6430000   24.5790000  
C 16.7710000   21.0780000   25.0420000  
C 17.4370000   21.5900000   23.9180000  
N 17.3060000   20.7330000   22.8520000  
O 17.9500000   23.5140000   25.1560000  
C 18.2160000   22.8860000   24.0190000  
O 19.0440000   23.2250000   23.2590000  
O 14.9790000   16.4950000   22.4800000  
O 14.5190000   16.5800000   25.1580000  
H 16.8320000   21.5020000   26.0660000  
H 17.1270000   23.1070000   25.4860000  
H 17.9420000   20.7480000   22.0200000  
H 15.0920000   16.7270000   21.4860000  
H 14.3920000   15.8370000   24.5170000  
C 16.2810000   18.5150000   21.0260000  
C 16.9490000   17.4760000   20.3020000  
C 17.0380000   17.5180000   18.9210000  
C 16.3570000   18.4470000   18.0710000  
C 15.5840000   19.4620000   18.8230000  
C 15.5180000   19.4550000   20.2440000  
C 17.8580000   16.4810000   20.7180000  
C 18.3740000   15.8810000   19.5560000  
N 17.8410000   16.5130000   18.4290000  
O 19.6740000   14.3390000   20.7300000  
C 19.4230000   14.8340000   19.5220000  
O 20.0830000   14.4800000   18.5510000  
O 14.8880000   20.4720000   18.1600000  
O 14.8080000   20.3840000   20.8580000  
H 18.1800000   16.2600000   21.7590000  
H 19.0910000   14.7320000   21.3390000  
H 17.9410000   16.2340000   17.4640000  
H 14.5510000   21.0330000   18.8310000  
H 14.7560000   20.3440000   21.8480000  
C 16.3820000   18.2530000   16.6140000  
C 15.9100000   17.0680000   15.9880000  
C 16.0220000   16.7840000   14.6360000  
C 16.7970000   17.5840000   13.8450000  
C 17.3000000   18.7850000   14.4030000  
C 17.1050000   19.1060000   15.7750000  
C 15.1460000   15.9840000   16.6060000  
C 14.8150000   15.1100000   15.5750000  
N 15.3060000   15.6050000   14.4000000  
O 13.7980000   13.4970000   16.9000000  
C 14.0440000   13.8900000   15.6810000  
O 13.4860000   13.3200000   14.7600000  
O 18.0730000   19.5750000   13.5920000  
O 17.5940000   20.2650000   16.2650000  
H 14.8380000   15.9860000   17.6230000  
H 14.3430000   14.0480000   17.4940000  
H 15.0220000   15.3160000   13.4670000  
H 18.5210000   20.3040000   13.9920000  
H 17.1140000   20.2490000   17.0970000  
H 16.9850000   17.2830000   12.8150000  
