76
001 
C 12.2940000   12.3500000   24.4530000  
C 13.2660000   11.2740000   24.4080000  
C 14.5640000   11.3860000   23.9240000  
C 15.1030000   12.6190000   23.5540000  
C 14.1440000   13.7800000   23.5830000  
C 12.8260000   13.6770000   23.9990000  
C 15.5870000   10.4160000   23.6520000  
C 16.6660000   11.1900000   23.2400000  
N 16.3260000   12.5260000   23.1820000  
O 18.1500000    9.3580000   22.9680000  
C 18.0130000   10.6990000   22.7770000  
O 18.9260000   11.3660000   22.3540000  
O 11.9550000   14.7230000   24.1950000  
O 11.1400000   12.2280000   24.8990000  
H 12.8740000   10.3180000   24.7070000  
H 15.6140000    9.3590000   23.9040000  
H 17.3090000    9.0590000   23.4050000  
H 12.4150000   15.4850000   23.6990000  
C 14.5950000   15.1000000   23.1530000  
C 14.4130000   15.4230000   21.8490000  
C 14.6360000   16.6650000   21.4020000  
C 15.0850000   17.7290000   22.1940000  
C 15.4040000   17.4450000   23.5150000  
C 15.0820000   16.1250000   24.0370000  
C 14.0530000   14.5940000   20.6650000  
C 14.1470000   15.4620000   19.6080000  
N 14.3920000   16.7520000   20.0710000  
O 13.8360000   13.7500000   17.8820000  
C 14.0570000   15.0550000   18.2040000  
O 14.1390000   15.8770000   17.2950000  
O 15.7810000   18.3810000   24.3890000  
O 15.1600000   15.8600000   25.3630000  
H 13.9360000   13.5330000   20.5870000  
H 13.7910000   13.3100000   18.6890000  
H 14.3830000   17.6360000   19.4930000  
H 16.0130000   19.1440000   23.7990000  
H 15.2910000   16.7780000   25.7220000  
C 15.5090000   18.9990000   21.6000000  
C 14.8130000   20.1820000   21.6160000  
C 15.3280000   21.2970000   21.0400000  
C 16.5100000   21.3890000   20.3090000  
C 17.2330000   20.1230000   20.3210000  
C 16.7850000   19.0070000   21.0080000  
C 13.5980000   20.5760000   22.3190000  
C 13.5190000   21.9730000   22.1730000  
N 14.5040000   22.3940000   21.1820000  
O 11.5250000   22.2820000   23.4970000  
C 12.5510000   22.8750000   22.8470000  
O 12.5720000   24.0610000   22.7490000  
O 18.3740000   20.0400000   19.6510000  
O 17.6440000   17.9000000   21.1490000  
H 12.9760000   19.8370000   22.9340000  
H 11.7790000   21.3070000   23.3500000  
H 14.5060000   23.2130000   20.6950000  
H 18.9400000   19.5030000   20.0890000  
H 17.2110000   17.4280000   21.8920000  
C 17.0720000   22.6300000   19.6720000  
C 18.1780000   23.3260000   20.2730000  
C 18.6400000   24.5360000   19.7810000  
C 18.2140000   25.1310000   18.6690000  
C 17.1860000   24.4320000   18.0250000  
C 16.6030000   23.1980000   18.4570000  
C 19.0050000   23.0590000   21.4640000  
C 19.9430000   24.0930000   21.6090000  
N 19.7250000   24.9860000   20.5450000  
O 20.9950000   23.3380000   23.5960000  
C 21.0320000   24.1860000   22.5790000  
O 22.0200000   24.9050000   22.4560000  
O 16.5730000   25.0330000   16.9460000  
O 15.5350000   22.7180000   17.7220000  
H 18.8680000   22.2720000   22.1510000  
H 20.1350000   22.8470000   23.5140000  
H 20.3530000   25.7010000   20.2860000  
H 15.9100000   24.3700000   16.6120000  
H 15.4330000   21.7690000   17.9020000  
H 18.6430000   26.0360000   18.2520000  
