76
001 
C 13.7680000   24.3490000   25.8980000  
C 12.3200000   24.0600000   26.2190000  
C 11.6630000   23.1030000   25.5810000  
C 12.3670000   22.1460000   24.8020000  
C 13.7290000   22.2120000   24.4120000  
C 14.3900000   23.3920000   24.8730000  
C 10.3280000   22.6530000   25.7050000  
C 10.2870000   21.5290000   24.9330000  
N 11.5290000   21.1670000   24.3330000  
O  7.9060000   21.2260000   25.1680000  
C  9.0600000   20.7030000   24.6230000  
O  9.1660000   19.7170000   23.9170000  
O 15.7160000   23.6510000   24.5930000  
O 14.3770000   25.1860000   26.5110000  
H 11.8240000   24.5980000   27.0440000  
H  9.4960000   23.1180000   26.2720000  
H  8.3050000   21.8680000   25.7540000  
H 16.1110000   22.9400000   24.1090000  
C 14.3520000   21.1500000   23.5490000  
C 14.8510000   21.3370000   22.2960000  
C 15.2640000   20.3090000   21.5100000  
C 15.4160000   18.9890000   21.9230000  
C 14.9360000   18.7630000   23.2060000  
C 14.3580000   19.7910000   24.0150000  
C 14.8770000   22.5870000   21.4650000  
C 15.3750000   22.1470000   20.2090000  
N 15.5810000   20.7310000   20.2900000  
O 15.6170000   24.2890000   19.2250000  
C 15.6830000   22.9750000   19.0020000  
O 15.9420000   22.4510000   17.9330000  
O 14.9140000   17.4660000   23.6970000  
O 13.7890000   19.4310000   25.1870000  
H 14.4300000   23.5180000   21.8080000  
H 15.4090000   24.3890000   20.1190000  
H 15.9690000   20.1490000   19.5230000  
H 15.4620000   16.8450000   23.1270000  
H 13.8000000   18.4710000   25.2060000  
C 16.0590000   17.8580000   21.0440000  
C 17.3020000   17.3040000   21.4080000  
C 17.9090000   16.3570000   20.6170000  
C 17.4080000   15.8240000   19.4390000  
C 16.1520000   16.3840000   18.9840000  
C 15.5050000   17.3520000   19.8000000  
C 18.2200000   17.5740000   22.5080000  
C 19.3680000   16.8470000   22.2970000  
N 19.1490000   16.0600000   21.1340000  
O 20.4690000   17.6390000   24.2720000  
C 20.6250000   16.9730000   23.1060000  
O 21.7440000   16.5550000   22.7930000  
O 15.5930000   15.9930000   17.7340000  
O 14.2530000   17.7690000   19.3570000  
H 18.0090000   18.2480000   23.2810000  
H 19.5270000   17.8000000   24.4500000  
H 19.7940000   15.4180000   20.7090000  
H 14.9020000   16.5730000   17.4370000  
H 13.9500000   18.3420000   20.1100000  
C 18.1490000   14.7420000   18.7030000  
C 18.1550000   13.4190000   19.2140000  
C 18.7890000   12.4770000   18.5050000  
C 19.5070000   12.6780000   17.3530000  
C 19.4380000   13.9500000   16.8140000  
C 18.7990000   15.0180000   17.4910000  
C 17.5270000   12.7910000   20.3540000  
C 17.8050000   11.4320000   20.2500000  
N 18.5130000   11.2380000   19.0380000  
O 16.8440000   10.8090000   22.3190000  
C 17.5120000   10.3480000   21.2250000  
O 17.8170000    9.1750000   21.0250000  
O 19.9930000   14.0300000   15.5940000  
O 19.0420000   16.2930000   17.0120000  
H 17.1190000   13.3630000   21.1240000  
H 16.5870000   11.7290000   22.2160000  
H 18.8640000   10.3490000   18.7260000  
H 19.9780000   14.9300000   15.2460000  
H 18.3530000   16.8430000   17.3370000  
H 19.9590000   11.8570000   16.8270000  
