76
001 
C 12.6970000   25.0340000   20.1830000  
C 11.7120000   25.2660000   21.2730000  
C 11.6090000   24.3580000   22.2840000  
C 12.4240000   23.1940000   22.3460000  
C 13.4510000   22.9020000   21.4000000  
C 13.5890000   23.8230000   20.3790000  
C 10.9450000   24.3590000   23.5870000  
C 11.2980000   23.1470000   24.1300000  
N 12.1880000   22.4170000   23.4050000  
O  9.6700000   23.2650000   25.8870000  
C 10.6230000   22.5080000   25.3100000  
O 10.9190000   21.4450000   25.8060000  
O 14.5560000   23.6360000   19.4130000  
O 12.8120000   25.8070000   19.2400000  
H 11.0640000   26.1530000   21.2060000  
H 10.1800000   25.0330000   23.9400000  
H  9.7930000   24.1030000   25.4290000  
H 14.8380000   22.7460000   19.4480000  
C 14.2040000   21.5720000   21.3250000  
C 13.5580000   20.3950000   21.2140000  
C 14.2730000   19.2280000   21.2790000  
C 15.6030000   19.0760000   21.4140000  
C 16.3300000   20.2530000   21.5950000  
C 15.6540000   21.5210000   21.5320000  
C 12.2020000   20.0100000   21.1610000  
C 12.1820000   18.5910000   21.1740000  
N 13.4720000   18.0760000   21.2270000  
O  9.7730000   18.2390000   20.7690000  
C 11.0230000   17.6930000   21.0190000  
O 11.1600000   16.4680000   20.9360000  
O 17.6560000   20.2380000   21.7640000  
O 16.3960000   22.6850000   21.7910000  
H 11.4230000   20.7000000   20.9550000  
H  9.7790000   19.1200000   21.1870000  
H 13.7930000   17.1220000   21.2580000  
H 18.0100000   19.3410000   21.8340000  
H 17.3130000   22.3600000   21.9790000  
C 16.2370000   17.7900000   21.6000000  
C 16.6160000   16.9790000   20.5100000  
C 17.3020000   15.8360000   20.7450000  
C 17.5180000   15.2990000   22.0280000  
C 17.0740000   16.0290000   23.1280000  
C 16.4890000   17.3480000   22.9390000  
C 16.5360000   17.0740000   19.0480000  
C 17.2890000   16.0360000   18.5320000  
N 17.5020000   15.1220000   19.5790000  
O 17.0780000   16.7900000   16.3330000  
C 17.6000000   15.7950000   17.0800000  
O 18.2140000   14.7920000   16.6450000  
O 17.3040000   15.5430000   24.3550000  
O 15.9610000   18.0460000   24.0520000  
H 16.0660000   17.8300000   18.5560000  
H 16.4960000   17.3090000   17.0210000  
H 18.0040000   14.2810000   19.5740000  
H 17.4480000   14.5800000   24.2250000  
H 15.0190000   18.2720000   23.8840000  
C 18.3520000   14.0480000   22.2120000  
C 19.7590000   14.0780000   22.4310000  
C 20.4510000   12.9330000   22.5070000  
C 19.8550000   11.6480000   22.4790000  
C 18.4520000   11.5790000   22.2610000  
C 17.7140000   12.7790000   22.1380000  
C 20.7420000   15.2080000   22.6400000  
C 21.9690000   14.5670000   22.6820000  
N 21.8250000   13.1810000   22.6180000  
O 23.2650000   16.5880000   22.7490000  
C 23.2680000   15.2460000   22.7410000  
O 24.2940000   14.6330000   22.8520000  
O 17.9580000   10.2880000   22.0400000  
O 16.3340000   12.5960000   21.8870000  
H 20.6360000   16.2750000   22.6310000  
H 22.3550000   16.8550000   22.8050000  
H 22.5570000   12.5010000   22.7560000  
H 18.6290000    9.7310000   22.5190000  
H 16.1970000   11.6670000   21.6380000  
H 20.4430000   10.7570000   22.5140000  
