76
001 
C 10.5630000   22.2900000   18.1400000  
C 10.5420000   23.6200000   18.8730000  
C 11.3660000   23.9140000   19.9810000  
C 12.1720000   22.9160000   20.5130000  
C 12.2800000   21.6290000   19.8800000  
C 11.5120000   21.3490000   18.7720000  
C 11.5350000   25.0780000   20.7920000  
C 12.3680000   24.6240000   21.8080000  
N 12.7570000   23.3140000   21.6010000  
O 12.1620000   26.7150000   22.9870000  
C 12.6970000   25.4910000   22.9650000  
O 13.4360000   25.1190000   23.8310000  
O 11.7250000   20.2620000   17.9980000  
O 10.0040000   22.0450000   17.0750000  
H  9.7960000   24.3090000   18.3760000  
H 10.9870000   26.0020000   20.7270000  
H 11.6150000   26.7440000   22.1900000  
H 12.0720000   19.6270000   18.5550000  
C 13.3390000   20.7760000   20.4830000  
C 12.9840000   19.5110000   21.0040000  
C 13.8300000   18.5970000   21.5370000  
C 15.2280000   18.8310000   21.6270000  
C 15.6990000   20.0170000   21.1200000  
C 14.8000000   20.9480000   20.5200000  
C 11.6670000   18.9060000   21.0710000  
C 11.8440000   17.6100000   21.6090000  
N 13.2140000   17.4040000   21.9210000  
O  9.5330000   17.3990000   21.7890000  
C 10.7050000   16.8150000   22.0300000  
O 10.7520000   15.7170000   22.5780000  
O 17.0560000   20.2280000   21.0150000  
O 15.3430000   21.9460000   19.8630000  
H 10.6810000   19.4010000   20.8930000  
H  9.8170000   18.2980000   21.4680000  
H 13.5730000   16.5430000   22.3770000  
H 17.3650000   19.3360000   21.1920000  
H 16.2980000   21.8860000   20.1280000  
C 16.1990000   17.7710000   22.1650000  
C 16.6750000   16.7820000   21.2590000  
C 17.5920000   15.8670000   21.6470000  
C 18.0370000   15.6990000   22.9760000  
C 17.7010000   16.7920000   23.8540000  
C 16.8590000   17.8250000   23.4150000  
C 16.2480000   16.3920000   19.9430000  
C 17.1170000   15.3480000   19.5240000  
N 17.8080000   14.8720000   20.6820000  
O 16.3360000   15.0100000   17.2550000  
C 17.1090000   14.6060000   18.2440000  
O 17.6700000   13.5780000   18.0940000  
O 18.2410000   16.7860000   25.1270000  
O 16.7470000   18.9520000   24.2510000  
H 15.5940000   16.9780000   19.2700000  
H 15.7410000   15.5550000   17.6830000  
H 18.4360000   14.0510000   20.6890000  
H 18.4730000   15.8910000   25.4530000  
H 15.8660000   19.3630000   24.1560000  
C 18.9940000   14.5660000   23.3790000  
C 20.3470000   14.8730000   23.5300000  
C 21.3170000   13.8800000   23.8200000  
C 20.9530000   12.5260000   24.0180000  
C 19.5870000   12.1460000   23.8680000  
C 18.6050000   13.1880000   23.5800000  
C 21.0070000   16.1230000   23.4150000  
C 22.3830000   15.8330000   23.5590000  
N 22.5320000   14.4430000   23.7980000  
O 22.9920000   18.2020000   23.4750000  
C 23.4090000   16.9330000   23.6390000  
O 24.5920000   16.6480000   23.7060000  
O 19.2310000   10.8560000   24.1320000  
O 17.2940000   12.8350000   23.5650000  
H 20.4570000   17.0850000   23.4140000  
H 22.0390000   18.1050000   23.3100000  
H 23.4840000   14.0800000   23.9960000  
H 19.9890000   10.3010000   24.4320000  
H 17.2250000   11.8840000   23.7790000  
H 21.6970000   11.6990000   24.2330000  
