76
001 
C 12.4370000   13.1210000   26.0960000  
C 13.5090000   12.2560000   26.6530000  
C 14.8120000   12.6520000   26.4230000  
C 15.2280000   13.7680000   25.6810000  
C 14.2530000   14.5680000   25.0800000  
C 12.9110000   14.2440000   25.3390000  
C 16.0150000   12.0600000   26.8990000  
C 17.0620000   12.7740000   26.3080000  
N 16.5430000   13.8430000   25.5260000  
O 18.7120000   11.4850000   27.3820000  
C 18.5230000   12.5140000   26.5170000  
O 19.4860000   13.1080000   26.0030000  
O 11.8390000   14.8820000   24.8180000  
O 11.2560000   12.7680000   26.2810000  
H 13.1340000   11.4760000   27.2180000  
H 16.1280000   11.2670000   27.5830000  
H 17.8000000   11.3530000   27.6070000  
H 12.1630000   15.7710000   24.3580000  
C 14.6060000   15.6040000   24.1530000  
C 15.0230000   15.2920000   22.8100000  
C 15.2240000   16.3310000   21.8900000  
C 15.1780000   17.6840000   22.1720000  
C 14.9410000   18.0230000   23.5860000  
C 14.5810000   17.0060000   24.4690000  
C 15.2720000   14.0470000   22.1040000  
C 15.8710000   14.4180000   20.9260000  
N 15.6690000   15.7790000   20.7170000  
O 16.4840000   12.1430000   20.4430000  
C 16.4880000   13.4320000   19.9710000  
O 17.0400000   13.8900000   18.9680000  
O 15.0730000   19.2920000   24.0530000  
O 14.2220000   17.2680000   25.7710000  
H 15.1660000   13.0920000   22.5760000  
H 16.0550000   12.2360000   21.3460000  
H 16.0300000   16.2490000   19.8640000  
H 15.3070000   19.8820000   23.3410000  
H 14.6070000   18.0750000   26.0710000  
C 15.7950000   18.6700000   21.2150000  
C 15.0660000   19.6000000   20.4520000  
C 15.6400000   20.5110000   19.6710000  
C 17.0210000   20.7390000   19.5720000  
C 17.8390000   19.8070000   20.2780000  
C 17.2000000   18.8770000   21.1410000  
C 13.6380000   19.9010000   20.3610000  
C 13.5040000   20.9600000   19.4280000  
N 14.7180000   21.2270000   18.8500000  
O 11.2510000   21.3520000   20.0390000  
C 12.2250000   21.6370000   19.1500000  
O 12.0800000   22.5900000   18.3420000  
O 19.2230000   19.7960000   20.2300000  
O 17.9830000   18.0530000   21.9030000  
H 12.8650000   19.5910000   21.0380000  
H 11.5490000   20.5140000   20.5000000  
H 14.9860000   22.0140000   18.2670000  
H 19.4920000   19.5700000   21.0810000  
H 17.4870000   17.2060000   21.9630000  
C 17.5800000   21.7660000   18.6360000  
C 17.2190000   23.1170000   18.7750000  
C 17.7470000   24.0940000   17.8680000  
C 18.6310000   23.7890000   16.8860000  
C 18.9960000   22.4880000   16.6610000  
C 18.4890000   21.5070000   17.5410000  
C 16.3150000   23.7650000   19.6510000  
C 16.3400000   25.0970000   19.2190000  
N 17.2010000   25.3050000   18.1480000  
O 14.9120000   25.8420000   20.8920000  
C 15.6520000   26.2200000   19.8340000  
O 15.6740000   27.3410000   19.4120000  
O 19.9570000   22.0680000   15.7080000  
O 18.8330000   20.1860000   17.3110000  
H 15.7070000   23.3510000   20.4380000  
H 15.0170000   24.8880000   21.0160000  
H 17.2900000   26.1100000   17.5950000  
H 20.0240000   21.1000000   15.5720000  
H 18.5740000   19.6970000   18.0890000  
H 19.0210000   24.5290000   16.1900000  
