76
001 
C 12.1650000   13.3390000   25.8130000  
C 13.2060000   12.5990000   26.6070000  
C 14.5320000   13.0670000   26.6350000  
C 14.9580000   14.1170000   25.9020000  
C 14.0530000   14.8500000   25.0550000  
C 12.6950000   14.4830000   24.9610000  
C 15.6610000   12.5650000   27.3770000  
C 16.7090000   13.4110000   26.9930000  
N 16.2220000   14.3980000   26.0960000  
O 18.3470000   12.2310000   28.1980000  
C 18.1280000   13.2950000   27.4500000  
O 19.1150000   13.8980000   27.0590000  
O 11.8500000   15.1960000   24.1970000  
O 10.9850000   12.9680000   25.7880000  
H 12.8180000   11.8200000   27.2450000  
H 15.5840000   11.6910000   27.9860000  
H 17.4380000   11.9320000   28.2950000  
H 12.1910000   16.1500000   23.9690000  
C 14.5990000   15.8860000   24.2180000  
C 15.5660000   15.5930000   23.2200000  
C 16.0710000   16.5360000   22.3500000  
C 15.7590000   17.8690000   22.4760000  
C 14.7750000   18.2210000   23.4860000  
C 14.2290000   17.2210000   24.3170000  
C 16.2160000   14.3040000   22.8530000  
C 17.1100000   14.5900000   21.7910000  
N 16.9150000   15.9520000   21.4500000  
O 18.2970000   12.4420000   21.7480000  
C 18.0900000   13.6980000   21.1150000  
O 18.6350000   14.0560000   20.0820000  
O 14.3070000   19.4740000   23.6160000  
O 13.2490000   17.5630000   25.2290000  
H 15.9950000   13.3490000   23.2770000  
H 17.7930000   12.4600000   22.5600000  
H 17.4640000   16.4030000   20.7090000  
H 14.6550000   19.8030000   22.7700000  
H 12.9940000   18.4730000   25.1660000  
C 16.2130000   18.8830000   21.4880000  
C 15.2570000   19.4110000   20.6450000  
C 15.6130000   20.2420000   19.6870000  
C 16.8800000   20.7030000   19.4170000  
C 17.8720000   20.1870000   20.3700000  
C 17.5600000   19.3530000   21.4210000  
C 13.9370000   18.9560000   20.3370000  
C 13.4700000   19.7390000   19.2780000  
N 14.5480000   20.5760000   18.8790000  
O 11.2350000   18.9920000   19.2830000  
C 12.0890000   19.7850000   18.6570000  
O 11.7790000   20.4530000   17.7310000  
O 19.1420000   20.6940000   20.2630000  
O 18.5180000   18.8410000   22.2880000  
H 13.1820000   18.4690000   21.0230000  
H 11.7620000   18.7040000   20.0770000  
H 14.5690000   21.2280000   18.1050000  
H 19.5230000   20.5620000   21.0770000  
H 18.4260000   17.8490000   22.3020000  
C 17.1760000   21.5520000   18.2060000  
C 16.7990000   22.9400000   18.1650000  
C 17.1570000   23.7880000   17.1400000  
C 17.9870000   23.3400000   16.0850000  
C 18.2960000   21.9920000   16.0380000  
C 17.9290000   21.0680000   17.1050000  
C 16.0640000   23.7870000   19.0830000  
C 16.0700000   25.0740000   18.6240000  
N 16.7640000   25.0760000   17.4240000  
O 15.2430000   26.2240000   20.5470000  
C 15.6430000   26.3060000   19.3080000  
O 15.7600000   27.4200000   18.7630000  
O 19.0440000   21.6180000   14.9960000  
O 18.4460000   19.8390000   17.1120000  
H 15.8500000   23.4370000   20.0850000  
H 15.1750000   25.2330000   20.6910000  
H 17.0610000   25.9090000   16.9280000  
H 19.1780000   20.6720000   15.1200000  
H 18.6320000   19.4780000   17.9630000  
H 18.3790000   24.0130000   15.2650000  
