76
001 
C 14.2570000   18.3310000   28.7210000  
C 13.5540000   19.5150000   29.1610000  
C 13.3170000   20.4900000   28.2610000  
C 13.8900000   20.5580000   26.9480000  
C 14.5670000   19.3820000   26.4430000  
C 14.7620000   18.3050000   27.2600000  
C 12.5790000   21.6820000   28.3690000  
C 12.6250000   22.2870000   27.1010000  
N 13.4500000   21.6010000   26.2200000  
O 11.1010000   24.0410000   27.4710000  
C 11.9910000   23.5590000   26.6350000  
O 12.3800000   24.2510000   25.7460000  
O 15.1040000   17.0840000   26.8160000  
O 14.3660000   17.4090000   29.4350000  
H 13.0260000   19.4600000   30.0690000  
H 11.8360000   21.9600000   29.1290000  
H 11.0070000   23.3250000   28.1230000  
H 15.3090000   17.3000000   25.8740000  
C 14.7780000   19.1810000   24.9930000  
C 15.9550000   19.5890000   24.3970000  
C 16.2180000   19.4230000   23.0850000  
C 15.4230000   18.5560000   22.2890000  
C 14.1670000   18.2160000   22.8920000  
C 13.8470000   18.5020000   24.2100000  
C 17.1850000   20.1950000   24.9480000  
C 18.1270000   20.2220000   23.9420000  
N 17.5030000   19.8160000   22.7570000  
O 20.1010000   20.8610000   25.1470000  
C 19.6220000   20.4510000   23.9670000  
O 20.3950000   20.0660000   23.0580000  
O 13.1700000   17.5790000   22.1460000  
O 12.5970000   18.2200000   24.7930000  
H 17.2580000   20.4090000   25.9250000  
H 19.3200000   21.0040000   25.6830000  
H 17.9620000   19.6050000   21.8700000  
H 13.5590000   17.3760000   21.2890000  
H 12.0630000   17.8760000   24.0830000  
C 15.9320000   18.2580000   20.9190000  
C 16.2250000   16.9000000   20.5810000  
C 16.8340000   16.6270000   19.4150000  
C 17.1600000   17.5760000   18.3980000  
C 16.7760000   18.9300000   18.6480000  
C 16.2180000   19.2380000   19.9300000  
C 16.1830000   15.6550000   21.3870000  
C 16.8780000   14.7020000   20.6580000  
N 17.0610000   15.2890000   19.3610000  
O 16.8550000   13.1070000   22.4230000  
C 17.2340000   13.3270000   21.1290000  
O 17.8710000   12.5290000   20.4910000  
O 16.9030000   19.8660000   17.6190000  
O 16.0090000   20.5960000   20.1130000  
H 15.9630000   15.4930000   22.4440000  
H 16.4470000   13.9200000   22.7030000  
H 17.4400000   14.8730000   18.5080000  
H 16.6840000   20.7510000   17.8900000  
H 15.7670000   20.8340000   21.0170000  
C 17.6360000   17.1420000   17.0450000  
C 16.6950000   16.6050000   16.1440000  
C 17.0730000   16.3440000   14.8230000  
C 18.4170000   16.5750000   14.4080000  
C 19.3790000   17.0960000   15.2780000  
C 18.9620000   17.3730000   16.6020000  
C 15.3180000   16.1790000   16.3410000  
C 14.9130000   15.7570000   15.0930000  
N 15.9640000   15.8340000   14.1400000  
O 12.6710000   15.3550000   15.7770000  
C 13.5470000   15.2500000   14.7890000  
O 13.1630000   14.8780000   13.7270000  
O 20.6950000   17.3230000   14.8580000  
O 19.8510000   18.0340000   17.4510000  
H 14.6640000   16.2990000   17.1940000  
H 13.0640000   15.7900000   16.5880000  
H 15.8610000   15.8590000   13.1530000  
H 21.0810000   17.8670000   15.5320000  
H 19.2470000   18.3890000   18.0920000  
H 18.8010000   16.3100000   13.4490000  
