76
001 
C 10.0580000   21.8320000   17.9770000  
C 10.1380000   23.1320000   18.5930000  
C 11.2070000   23.4630000   19.4850000  
C 12.0850000   22.4860000   19.9580000  
C 12.0290000   21.1800000   19.3560000  
C 11.1370000   20.8280000   18.3600000  
C 11.6040000   24.7030000   20.1340000  
C 12.7320000   24.3510000   20.8780000  
N 13.0050000   22.9960000   20.7430000  
O 13.1730000   26.5100000   21.7720000  
C 13.5850000   25.2130000   21.7720000  
O 14.5500000   24.7980000   22.3450000  
O 10.9730000   19.5610000   17.8430000  
O  9.1230000   21.6120000   17.2660000  
H  9.4170000   23.8560000   18.2180000  
H 11.2030000   25.6640000   19.9370000  
H 12.3220000   26.6180000   21.3050000  
H 11.8510000   19.1660000   17.6600000  
C 12.9890000   20.2080000   19.8870000  
C 12.7510000   19.3470000   21.0490000  
C 13.6790000   18.4990000   21.4750000  
C 14.9170000   18.2290000   20.9280000  
C 15.1820000   19.0150000   19.7690000  
C 14.2320000   19.9450000   19.2630000  
C 11.6580000   19.2730000   21.9150000  
C 12.0590000   18.4180000   22.9410000  
N 13.3020000   17.9050000   22.6340000  
O 10.0030000   18.4950000   24.0750000  
C 11.2500000   17.9980000   24.1040000  
O 11.6000000   17.3070000   25.0590000  
O 16.4000000   18.8630000   19.1480000  
O 14.6700000   20.6190000   18.1500000  
H 10.7370000   19.8110000   21.8410000  
H  9.9230000   19.0400000   23.3290000  
H 13.9720000   17.3160000   23.1870000  
H 16.8160000   18.0120000   19.3990000  
H 15.4360000   20.1660000   17.7390000  
C 15.9630000   17.3540000   21.5650000  
C 16.5850000   16.2820000   20.8650000  
C 17.5770000   15.5700000   21.5110000  
C 18.1510000   15.8680000   22.8230000  
C 17.5860000   17.0070000   23.5010000  
C 16.4940000   17.6470000   22.8540000  
C 16.3840000   15.6820000   19.5910000  
C 17.4040000   14.7530000   19.4710000  
N 18.0590000   14.5810000   20.7320000  
O 16.9850000   14.3280000   17.1790000  
C 17.7530000   14.0190000   18.2360000  
O 18.6130000   13.1490000   18.2000000  
O 17.8180000   17.1350000   24.8840000  
O 15.9050000   18.6260000   23.5490000  
H 15.6920000   15.8320000   18.7890000  
H 16.1750000   14.7710000   17.4200000  
H 18.6140000   13.7900000   21.0000000  
H 18.2660000   16.3180000   25.2470000  
H 15.4290000   19.3370000   23.0580000  
C 19.1080000   14.9310000   23.4380000  
C 20.2880000   15.5510000   23.9910000  
C 21.2400000   14.7680000   24.6700000  
C 21.1850000   13.3880000   24.8220000  
C 20.0660000   12.7850000   24.2770000  
C 19.0220000   13.4960000   23.6040000  
C 20.8440000   16.8790000   24.0310000  
C 22.0430000   16.8160000   24.6830000  
N 22.3680000   15.5260000   25.0710000  
O 22.2040000   19.1270000   24.7700000  
C 22.8370000   17.9770000   24.8470000  
O 23.9750000   17.9550000   25.2550000  
O 19.8700000   11.4500000   24.5150000  
O 17.9340000   12.7870000   23.2230000  
H 20.4670000   17.7370000   23.5440000  
H 21.3830000   18.7750000   24.4510000  
H 23.1290000   15.1870000   25.6260000  
H 20.7500000   11.0280000   24.5640000  
H 18.1480000   11.9140000   23.5180000  
H 21.9860000   12.9160000   25.3460000  
