76
001 
C 12.2220000   18.5900000   15.0490000  
C 10.9110000   19.1500000   15.4060000  
C 10.6610000   19.6050000   16.6760000  
C 11.5920000   19.5490000   17.7250000  
C 12.9120000   19.0870000   17.5010000  
C 13.1960000   18.5280000   16.2430000  
C  9.4190000   19.9850000   17.1410000  
C  9.7080000   20.1900000   18.5130000  
N 11.0300000   19.8970000   18.8570000  
O  7.4200000   20.7670000   18.8790000  
C  8.6030000   20.5190000   19.4840000  
O  8.7340000   20.5500000   20.7050000  
O 14.4000000   17.9860000   16.0760000  
O 12.4270000   18.2400000   13.8840000  
H 10.1100000   19.2330000   14.5900000  
H  8.5210000   20.1690000   16.5520000  
H  7.5470000   20.3220000   18.0300000  
H 14.9570000   18.2010000   16.8820000  
C 13.8410000   18.9490000   18.6550000  
C 13.7520000   17.9070000   19.5560000  
C 14.4840000   17.8400000   20.7000000  
C 15.4940000   18.7530000   21.0550000  
C 15.5430000   19.8990000   20.2280000  
C 14.8040000   19.9710000   18.9750000  
C 12.9020000   16.7080000   19.5120000  
C 13.1010000   16.0510000   20.7300000  
N 14.0370000   16.7630000   21.4200000  
O 11.4220000   14.3610000   20.4070000  
C 12.3300000   14.8880000   21.2250000  
O 12.4070000   14.4000000   22.3440000  
O 16.5140000   20.8220000   20.4920000  
O 14.9620000   21.1390000   18.3020000  
H 12.2410000   16.4290000   18.7100000  
H 11.5160000   14.9740000   19.6110000  
H 14.2480000   16.6160000   22.3100000  
H 16.6890000   20.6850000   21.4540000  
H 15.6190000   21.6680000   18.8130000  
C 16.2020000   18.4800000   22.2870000  
C 17.3450000   17.7890000   22.2960000  
C 17.9490000   17.5330000   23.4860000  
C 17.5970000   17.9900000   24.7240000  
C 16.4810000   18.8010000   24.6960000  
C 15.7270000   18.9880000   23.5650000  
C 18.1490000   17.1200000   21.2700000  
C 19.1280000   16.4070000   21.9820000  
N 19.0570000   16.7840000   23.3180000  
O 20.2850000   15.5150000   20.1350000  
C 20.1700000   15.4600000   21.4990000  
O 20.8690000   14.7430000   22.1200000  
O 15.9270000   19.3450000   25.8650000  
O 14.7180000   19.8660000   23.5070000  
H 17.9610000   16.9700000   20.2340000  
H 19.5740000   16.2430000   19.8540000  
H 19.8480000   16.7080000   23.9500000  
H 15.1160000   19.8030000   25.5920000  
H 14.4900000   19.9810000   22.6150000  
C 18.5030000   17.8040000   25.9250000  
C 19.8660000   18.3010000   25.7660000  
C 20.7540000   18.2160000   26.8020000  
C 20.4660000   17.4820000   27.9270000  
C 19.2150000   16.8760000   28.1060000  
C 18.2370000   17.1050000   27.1100000  
C 20.5700000   18.9570000   24.6760000  
C 21.8420000   19.2920000   25.1010000  
N 21.9720000   18.7600000   26.4370000  
O 22.4280000   20.4190000   23.1180000  
C 22.9050000   19.9100000   24.2370000  
O 24.0750000   19.9030000   24.5250000  
O 19.0060000   16.1580000   29.2260000  
O 16.8990000   16.6550000   27.3510000  
H 20.0780000   19.2760000   23.7800000  
H 21.4640000   20.2760000   23.0750000  
H 22.8070000   18.6410000   26.9970000  
H 18.1280000   15.8630000   29.1900000  
H 16.3160000   16.8420000   26.5250000  
H 21.2030000   17.3030000   28.7270000  
