76
001 
C 13.9820000   13.1120000   26.9600000  
C 15.2260000   12.4110000   27.1480000  
C 16.3050000   12.7810000   26.4310000  
C 16.3260000   13.8250000   25.4620000  
C 15.1230000   14.4980000   25.2360000  
C 14.0120000   14.2350000   25.9780000  
C 17.5390000   12.1610000   26.2480000  
C 18.2150000   12.8380000   25.2290000  
N 17.4340000   13.8930000   24.7560000  
O 20.1580000   11.5620000   25.3570000  
C 19.5600000   12.5600000   24.7690000  
O 20.0750000   13.2460000   23.9910000  
O 12.8390000   14.8260000   25.8080000  
O 12.9320000   12.8130000   27.5300000  
H 15.3060000   11.5870000   27.8620000  
H 17.9880000   11.3700000   26.8710000  
H 19.4860000   11.2160000   26.0040000  
H 12.7970000   15.3340000   25.0230000  
C 15.0380000   15.5650000   24.1930000  
C 14.3100000   15.4360000   22.9890000  
C 14.3700000   16.3180000   21.9380000  
C 15.0330000   17.5710000   22.0420000  
C 15.6790000   17.7620000   23.3460000  
C 15.6980000   16.7750000   24.3730000  
C 13.5350000   14.3080000   22.4610000  
C 13.2120000   14.6680000   21.1550000  
N 13.7450000   15.9560000   20.8700000  
O 12.3580000   12.5990000   20.4270000  
C 12.6320000   13.8370000   20.0390000  
O 12.5510000   14.1690000   18.9110000  
O 16.2430000   19.0540000   23.5500000  
O 16.4840000   16.9620000   25.4950000  
H 13.4190000   13.3130000   22.9270000  
H 12.4470000   12.6010000   21.3810000  
H 13.4630000   16.4870000   20.0200000  
H 16.1710000   19.5300000   22.6980000  
H 17.0260000   17.8020000   25.5080000  
C 15.3350000   18.5000000   20.8900000  
C 14.9840000   19.8730000   21.0700000  
C 15.4070000   20.8050000   20.2190000  
C 16.0050000   20.5340000   18.9700000  
C 16.4440000   19.1510000   18.8500000  
C 16.0820000   18.1740000   19.7840000  
C 14.1810000   20.5620000   22.0870000  
C 14.3460000   21.8980000   21.7700000  
N 15.0090000   22.0530000   20.5550000  
O 13.1440000   22.7430000   23.7570000  
C 13.7150000   22.9520000   22.5550000  
O 13.7630000   24.0900000   22.1800000  
O 17.2550000   18.6650000   17.8510000  
O 16.5940000   16.8710000   19.6650000  
H 13.7040000   20.1640000   22.9660000  
H 13.1230000   21.8150000   23.9500000  
H 14.9930000   22.8370000   19.9400000  
H 17.1930000   17.7010000   17.8670000  
H 16.0000000   16.2850000   20.1470000  
C 16.3540000   21.6030000   18.0120000  
C 17.1420000   22.7300000   18.3670000  
C 17.4220000   23.7310000   17.4440000  
C 17.0910000   23.6680000   16.0960000  
C 16.3450000   22.5180000   15.6950000  
C 16.0360000   21.5010000   16.6140000  
C 17.5710000   23.2530000   19.6530000  
C 18.1970000   24.4820000   19.4100000  
N 18.1130000   24.7580000   18.0490000  
O 18.7310000   25.1120000   21.6240000  
C 18.8310000   25.4210000   20.2910000  
O 19.3150000   26.4690000   19.9050000  
O 16.0580000   22.2960000   14.3460000  
O 15.1960000   20.5010000   16.1660000  
H 17.6500000   22.6810000   20.5350000  
H 18.2650000   24.2590000   21.6410000  
H 18.3510000   25.6760000   17.6780000  
H 15.7340000   21.3300000   14.3240000  
H 15.2990000   19.7220000   16.7070000  
H 17.5160000   24.4330000   15.3970000  
