76
001 
C 15.2400000   11.6640000   25.0770000  
C 14.9060000   10.6760000   24.0430000  
C 14.7460000   11.0630000   22.7300000  
C 15.0720000   12.3380000   22.2210000  
C 15.4560000   13.3930000   23.2180000  
C 15.6320000   13.0120000   24.5720000  
C 14.2570000   10.3090000   21.6560000  
C 14.4060000   11.1990000   20.5420000  
N 14.9470000   12.4800000   20.9390000  
O 13.7240000    9.6710000   18.8150000  
C 14.1050000   10.9340000   19.1360000  
O 14.1410000   11.7530000   18.2690000  
O 16.3060000   13.8040000   25.4110000  
O 15.3950000   11.3180000   26.2410000  
H 14.8250000    9.6680000   24.3590000  
H 13.8250000    9.2760000   21.7020000  
H 13.8110000    9.1680000   19.5960000  
H 16.6300000   14.4830000   24.8100000  
C 15.7700000   14.6490000   22.6900000  
C 14.7720000   15.4770000   22.3640000  
C 15.0370000   16.7200000   21.8850000  
C 16.3190000   17.2900000   21.7270000  
C 17.3650000   16.4350000   22.1250000  
C 17.1150000   15.1280000   22.5320000  
C 13.3510000   15.2960000   22.5050000  
C 12.7910000   16.5320000   22.1900000  
N 13.8190000   17.4080000   21.6980000  
O 10.5290000   15.8110000   22.5590000  
C 11.3470000   16.8080000   22.1810000  
O 10.8760000   17.8730000   21.7770000  
O 18.6520000   16.8920000   22.1810000  
O 18.1410000   14.3340000   22.9680000  
H 12.8240000   14.4000000   22.8100000  
H 11.1230000   15.0580000   22.6700000  
H 13.7600000   18.3910000   21.4660000  
H 18.7070000   17.8450000   22.3720000  
H 18.9710000   14.6550000   22.5700000  
C 16.5530000   18.7300000   21.3680000  
C 15.9260000   19.7660000   22.0710000  
C 16.0290000   21.0510000   21.7520000  
C 16.8810000   21.5300000   20.6950000  
C 17.5540000   20.5340000   19.9140000  
C 17.3980000   19.1460000   20.2800000  
C 15.1290000   19.7640000   23.2770000  
C 14.6310000   21.1030000   23.4630000  
N 15.1580000   21.8890000   22.4510000  
O 13.1040000   20.2800000   25.0100000  
C 13.5080000   21.3430000   24.3040000  
O 12.9450000   22.4620000   24.3510000  
O 18.2410000   20.8280000   18.7750000  
O 18.1140000   18.2460000   19.6320000  
H 14.7530000   18.9390000   23.8060000  
H 13.7100000   19.6060000   24.8240000  
H 14.8980000   22.8150000   22.1370000  
H 18.6850000   19.9540000   18.5690000  
H 18.1830000   17.4460000   20.1330000  
C 16.7550000   22.9410000   20.2710000  
C 17.7760000   23.8750000   20.3950000  
C 17.6360000   25.1330000   19.8980000  
C 16.5510000   25.4970000   19.1400000  
C 15.5550000   24.5600000   18.9450000  
C 15.5910000   23.3230000   19.5440000  
C 19.0650000   23.8150000   20.9600000  
C 19.6340000   25.0630000   20.8870000  
N 18.7560000   25.8740000   20.1260000  
O 21.5930000   24.3860000   22.1450000  
C 20.9530000   25.3670000   21.4390000  
O 21.4650000   26.3920000   21.2030000  
O 14.4340000   24.9900000   18.2800000  
O 14.6170000   22.3940000   19.2640000  
H 19.3810000   23.0670000   21.6640000  
H 20.9310000   23.6810000   22.1990000  
H 18.9410000   26.8230000   19.8300000  
H 13.7310000   24.3570000   18.1550000  
H 14.7750000   21.5220000   19.6230000  
H 16.4400000   26.4110000   18.5890000  
