76
001 
C 15.4340000   24.0470000   26.2660000  
C 13.9830000   24.3430000   26.5230000  
C 13.0610000   23.4200000   26.0230000  
C 13.3270000   22.2430000   25.2580000  
C 14.6970000   21.9210000   24.9640000  
C 15.7000000   22.7970000   25.4990000  
C 11.6580000   23.4400000   26.0750000  
C 11.1900000   22.3170000   25.3550000  
N 12.2320000   21.5790000   24.8680000  
O  9.0160000   22.8500000   25.8820000  
C  9.7710000   21.9290000   25.2980000  
O  9.4050000   20.8770000   24.8520000  
O 17.0440000   22.6430000   25.2620000  
O 16.3140000   24.7000000   26.7240000  
H 13.6750000   25.2120000   26.9840000  
H 11.0220000   24.2240000   26.4580000  
H  9.7040000   23.4600000   26.0950000  
H 17.2120000   21.6840000   25.1420000  
C 14.9770000   20.6790000   24.2440000  
C 14.7590000   20.7180000   22.8500000  
C 14.9170000   19.5830000   22.1460000  
C 15.4230000   18.3950000   22.7660000  
C 15.5900000   18.3480000   24.1580000  
C 15.4690000   19.5570000   24.9300000  
C 14.1140000   21.6890000   21.9730000  
C 13.9010000   21.0320000   20.7450000  
N 14.4270000   19.7170000   20.8500000  
O 13.2330000   23.0380000   19.5330000  
C 13.3270000   21.6920000   19.5790000  
O 13.0620000   21.0490000   18.5840000  
O 16.0130000   17.2390000   24.9070000  
O 15.7100000   19.5710000   26.2850000  
H 13.8390000   22.7300000   22.2450000  
H 13.1980000   23.2660000   20.5060000  
H 14.4060000   18.9860000   20.1780000  
H 16.6060000   16.7840000   24.3200000  
H 15.9140000   18.6200000   26.5410000  
C 15.6530000   17.2250000   21.8590000  
C 16.6360000   17.4130000   20.8800000  
C 17.0250000   16.3060000   20.1040000  
C 16.3970000   15.0020000   20.1550000  
C 15.4180000   14.8530000   21.1430000  
C 15.0880000   15.9290000   22.0330000  
C 17.3910000   18.5020000   20.3350000  
C 18.2240000   18.0540000   19.3130000  
N 17.8560000   16.6830000   19.0920000  
O 19.3320000   20.1310000   18.9340000  
C 19.1840000   18.8550000   18.5680000  
O 19.8990000   18.3410000   17.6990000  
O 14.7450000   13.7470000   21.1620000  
O 14.2290000   15.6470000   23.0740000  
H 17.2630000   19.5430000   20.6910000  
H 18.8130000   20.2470000   19.7910000  
H 18.3360000   16.0220000   18.5010000  
H 14.6020000   13.5880000   22.1140000  
H 14.2810000   16.3760000   23.7450000  
C 16.8270000   13.9980000   19.0430000  
C 18.1940000   13.6030000   18.8630000  
C 18.6610000   12.6110000   17.9530000  
C 17.6950000   11.8920000   17.2650000  
C 16.2870000   12.2550000   17.4530000  
C 15.9080000   13.3310000   18.2340000  
C 19.4810000   13.9570000   19.4680000  
C 20.5290000   13.3170000   18.8510000  
N 19.9750000   12.5120000   17.8820000  
O 22.1900000   14.0830000   20.4360000  
C 21.9480000   13.5830000   19.1210000  
O 22.8100000   13.3250000   18.3210000  
O 15.3520000   11.6440000   16.6470000  
O 14.6640000   13.8260000   18.1740000  
H 19.5190000   14.5980000   20.3550000  
H 21.3760000   13.9780000   20.9450000  
H 20.5540000   11.9580000   17.2370000  
H 14.5400000   12.1230000   16.7800000  
H 14.5790000   14.4990000   18.8810000  
H 17.9170000   11.0650000   16.6140000  
