76
001 
C 11.6450000   19.9440000   15.6330000  
C 10.6960000   20.9460000   16.0960000  
C 10.6060000   21.2800000   17.4610000  
C 11.4430000   20.6850000   18.4060000  
C 12.3860000   19.6370000   17.9860000  
C 12.5400000   19.3220000   16.6680000  
C  9.8490000   22.2450000   18.1030000  
C 10.2880000   22.1720000   19.4410000  
N 11.2440000   21.1540000   19.6460000  
O  8.9900000   24.0230000   20.1800000  
C  9.7180000   22.9300000   20.5990000  
O  9.8030000   22.5630000   21.7430000  
O 13.4740000   18.4160000   16.3140000  
O 11.6660000   19.7130000   14.4180000  
H 10.0990000   21.4240000   15.3900000  
H  9.0320000   22.8440000   17.6280000  
H  9.2280000   24.1190000   19.2840000  
H 13.9350000   18.2470000   17.1430000  
C 13.3090000   19.0990000   18.9910000  
C 13.1910000   17.8390000   19.6550000  
C 14.1200000   17.4290000   20.4810000  
C 15.2580000   18.1280000   20.9640000  
C 15.3840000   19.4300000   20.3540000  
C 14.4380000   19.8700000   19.4440000  
C 12.1220000   16.8690000   19.7740000  
C 12.5360000   15.8230000   20.5770000  
N 13.8240000   16.1550000   21.0050000  
O 10.4710000   14.6540000   20.5220000  
C 11.7060000   14.6380000   20.9400000  
O 12.1330000   13.7320000   21.6600000  
O 16.3810000   20.2550000   20.6490000  
O 14.7010000   21.0770000   18.8460000  
H 11.1440000   16.9070000   19.2570000  
H 10.3420000   15.4130000   19.9880000  
H 14.3380000   15.5650000   21.6360000  
H 16.9060000   19.9350000   21.3220000  
H 15.4580000   21.4150000   19.3290000  
C 16.1190000   17.6390000   22.0330000  
C 17.4790000   17.4450000   21.7810000  
C 18.3440000   17.0920000   22.7610000  
C 17.9540000   16.7620000   24.0810000  
C 16.5690000   16.9580000   24.3640000  
C 15.6480000   17.4120000   23.3680000  
C 18.3400000   17.7930000   20.6400000  
C 19.6280000   17.8650000   21.0880000  
N 19.6430000   17.2410000   22.3720000  
O 20.4740000   18.9100000   19.1110000  
C 20.7950000   18.3930000   20.3270000  
O 21.9410000   18.2120000   20.7270000  
O 16.1420000   16.6630000   25.6060000  
O 14.3470000   17.6010000   23.6870000  
H 17.9150000   17.8930000   19.6860000  
H 19.5620000   18.7770000   19.0790000  
H 20.3520000   17.2890000   23.1050000  
H 15.2180000   16.9330000   25.5530000  
H 13.9280000   18.3200000   23.0940000  
C 18.8420000   16.2010000   25.1230000  
C 19.8920000   16.9600000   25.7040000  
C 20.8250000   16.4160000   26.5110000  
C 20.7700000   15.0110000   26.9470000  
C 19.7940000   14.2740000   26.3340000  
C 18.8610000   14.8250000   25.3900000  
C 20.3180000   18.3180000   25.4170000  
C 21.4390000   18.5500000   26.1430000  
N 21.7620000   17.3780000   26.8110000  
O 21.7940000   20.7940000   25.4950000  
C 22.2690000   19.7570000   26.2050000  
O 23.2900000   19.8200000   26.8140000  
O 19.7090000   12.9660000   26.6390000  
O 17.9410000   13.9160000   24.7490000  
H 19.8130000   19.1150000   24.7830000  
H 20.8790000   20.5480000   25.3920000  
H 22.4820000   17.2890000   27.5030000  
H 18.7590000   12.6620000   26.4080000  
H 17.5280000   14.4500000   24.0020000  
H 21.5500000   14.5940000   27.6430000  
