76
001 
C 13.5480000   16.2280000   28.3500000  
C 14.0560000   17.1500000   29.3780000  
C 14.8710000   18.1530000   29.1060000  
C 15.2220000   18.4360000   27.7950000  
C 14.7700000   17.5630000   26.6950000  
C 14.0410000   16.3790000   27.0190000  
C 15.4270000   19.1340000   29.9590000  
C 16.1380000   19.9190000   29.0700000  
N 16.1050000   19.4500000   27.7530000  
O 16.6880000   21.6640000   30.7530000  
C 16.8940000   21.1750000   29.4310000  
O 17.6760000   21.7650000   28.6730000  
O 13.3640000   15.5920000   26.1050000  
O 12.7760000   15.3890000   28.7290000  
H 13.7180000   17.0990000   30.3750000  
H 15.2550000   19.3880000   30.9860000  
H 16.1110000   21.0120000   31.1170000  
H 14.0180000   15.5360000   25.3320000  
C 15.1290000   17.8460000   25.2950000  
C 16.1200000   17.1310000   24.6350000  
C 16.3520000   17.2530000   23.3080000  
C 15.7620000   18.2210000   22.4850000  
C 14.8370000   19.0850000   23.1730000  
C 14.5240000   18.8430000   24.5400000  
C 16.7890000   15.9110000   25.0100000  
C 17.5030000   15.4300000   23.8870000  
N 17.3140000   16.3550000   22.8270000  
O 18.4480000   13.6310000   25.1750000  
C 18.3710000   14.2180000   23.9780000  
O 18.8730000   13.7770000   23.0020000  
O 14.1620000   20.0810000   22.5420000  
O 13.6400000   19.6950000   25.1310000  
H 16.7680000   15.5340000   26.0120000  
H 17.9550000   14.2080000   25.8100000  
H 17.7180000   16.3690000   21.9380000  
H 14.4220000   20.1000000   21.6190000  
H 13.6690000   20.4720000   24.5310000  
C 16.1740000   18.4070000   21.0100000  
C 15.6440000   17.6190000   19.9360000  
C 15.8950000   18.0070000   18.6490000  
C 16.7090000   19.0280000   18.2620000  
C 17.2420000   19.7710000   19.3660000  
C 17.0020000   19.4770000   20.6820000  
C 14.8780000   16.3790000   19.8540000  
C 14.6400000   16.1200000   18.5320000  
N 15.3390000   17.0840000   17.7760000  
O 13.3390000   14.1470000   18.9710000  
C 13.8140000   14.9880000   17.9970000  
O 13.5970000   14.8110000   16.8100000  
O 18.1130000   20.7370000   18.9730000  
O 17.6230000   20.2900000   21.6340000  
H 14.6510000   15.7840000   20.6980000  
H 13.7910000   14.3990000   19.7840000  
H 15.4240000   17.0910000   16.7620000  
H 18.4440000   21.1550000   19.7660000  
H 17.3740000   20.0020000   22.5270000  
C 17.0600000   19.1410000   16.8290000  
C 16.2120000   19.8280000   15.9570000  
C 16.4620000   19.8860000   14.5700000  
C 17.5840000   19.3730000   13.9950000  
C 18.3490000   18.5970000   14.7890000  
C 18.1240000   18.4370000   16.1690000  
C 15.0210000   20.5160000   16.1810000  
C 14.5560000   20.9920000   14.9150000  
N 15.5230000   20.6430000   13.9350000  
O 12.6750000   22.1800000   15.8460000  
C 13.3320000   21.8120000   14.7270000  
O 12.9910000   22.2190000   13.5930000  
O 19.3210000   17.8160000   14.1350000  
O 18.9240000   17.6070000   16.8730000  
H 14.5790000   20.6810000   17.1650000  
H 13.2150000   21.8570000   16.5790000  
H 15.5850000   20.9640000   12.9390000  
H 19.7190000   17.2440000   14.7690000  
H 18.5160000   17.5950000   17.7330000  
H 17.7870000   19.3980000   12.9570000  
