76
001 
C 12.7860000   14.1150000   27.0750000  
C 13.6990000   14.1050000   28.2370000  
C 14.8280000   14.9720000   28.3260000  
C 15.2280000   15.7310000   27.2430000  
C 14.3720000   15.8740000   26.0920000  
C 13.2560000   15.0530000   25.9850000  
C 15.7440000   15.1030000   29.3540000  
C 16.6990000   15.8970000   28.7770000  
N 16.3820000   16.3220000   27.5270000  
O 18.1870000   15.6570000   30.5620000  
C 17.9560000   16.2520000   29.4140000  
O 18.7510000   17.0480000   28.8820000  
O 12.3980000   15.0890000   24.9200000  
O 11.8940000   13.2990000   26.9900000  
H 13.3790000   13.4310000   29.0450000  
H 15.8000000   14.5230000   30.3120000  
H 17.3860000   15.0620000   30.5810000  
H 12.7990000   15.7650000   24.4210000  
C 14.6610000   16.8350000   25.0020000  
C 15.8000000   16.7660000   24.2130000  
C 15.9020000   17.6020000   23.1420000  
C 15.0230000   18.6050000   22.6930000  
C 13.9850000   18.8430000   23.6640000  
C 13.8510000   17.9830000   24.7810000  
C 16.8980000   15.8210000   24.1510000  
C 17.5950000   16.2080000   22.9970000  
N 17.0070000   17.3320000   22.4250000  
O 18.9070000   14.2660000   22.7970000  
C 18.7180000   15.5230000   22.3800000  
O 19.3030000   16.0010000   21.4680000  
O 13.0100000   19.6910000   23.3810000  
O 12.8300000   18.2840000   25.6760000  
H 17.0740000   14.9490000   24.7730000  
H 18.2240000   14.2900000   23.5330000  
H 17.4340000   17.8790000   21.7240000  
H 12.9740000   19.7970000   22.4200000  
H 12.4380000   19.1100000   25.4420000  
C 15.3330000   19.4030000   21.4930000  
C 15.2900000   18.8010000   20.2030000  
C 15.8240000   19.4250000   19.0980000  
C 16.4580000   20.6890000   19.1690000  
C 16.3210000   21.3490000   20.4360000  
C 15.7020000   20.7920000   21.5600000  
C 15.0550000   17.4140000   19.7410000  
C 15.3750000   17.3640000   18.4010000  
N 15.9590000   18.6140000   18.0770000  
O 14.4160000   15.1700000   18.0480000  
C 15.0880000   16.2350000   17.5050000  
O 15.3990000   16.3110000   16.3540000  
O 16.6820000   22.6510000   20.6080000  
O 15.6280000   21.4050000   22.6900000  
H 14.6640000   16.6600000   20.3550000  
H 14.4390000   15.2120000   18.9790000  
H 16.3230000   18.8550000   17.1580000  
H 16.4860000   22.9200000   21.4700000  
H 15.0380000   20.8910000   23.2290000  
C 17.0530000   21.2420000   17.9180000  
C 16.2830000   21.4310000   16.6880000  
C 16.9020000   21.9680000   15.5760000  
C 18.2590000   22.2700000   15.4920000  
C 19.0240000   22.0990000   16.6930000  
C 18.4320000   21.5930000   17.8380000  
C 14.8820000   21.1870000   16.4010000  
C 14.7380000   21.4870000   15.0450000  
N 15.9760000   21.9920000   14.5750000  
O 12.5650000   20.5350000   14.7660000  
C 13.6130000   21.0730000   14.1260000  
O 13.6550000   21.0490000   12.9230000  
O 20.4030000   22.3400000   16.5990000  
O 19.2850000   21.3230000   18.8540000  
H 14.1440000   20.6500000   17.0030000  
H 12.6120000   20.7780000   15.7450000  
H 16.1370000   21.9930000   13.5680000  
H 20.7810000   21.9460000   17.4170000  
H 18.7360000   21.1140000   19.5950000  
H 18.6750000   22.4970000   14.5420000  
