76
001 
C 10.9910000   16.4570000   16.8760000  
C  9.9660000   17.5300000   16.6980000  
C 10.0950000   18.8400000   17.1360000  
C 11.2320000   19.2150000   17.8410000  
C 12.2880000   18.2290000   17.9950000  
C 12.1210000   16.8810000   17.6430000  
C  9.2710000   20.0330000   16.9570000  
C 10.0740000   21.0340000   17.4680000  
N 11.2860000   20.5380000   18.0730000  
O  8.6150000   22.7370000   16.7620000  
C  9.7820000   22.4850000   17.4170000  
O 10.4620000   23.3670000   17.8670000  
O 13.1340000   15.9230000   17.7630000  
O 10.9170000   15.4300000   16.2580000  
H  9.1710000   17.2430000   16.0410000  
H  8.3420000   20.2030000   16.3890000  
H  8.2320000   21.8530000   16.5290000  
H 13.9700000   16.4120000   18.0550000  
C 13.4020000   18.5540000   18.9240000  
C 13.1900000   18.8880000   20.3130000  
C 14.2600000   19.1490000   21.1410000  
C 15.5970000   19.0710000   20.7810000  
C 15.8130000   18.7030000   19.4480000  
C 14.7300000   18.5520000   18.5000000  
C 12.0510000   18.7470000   21.1630000  
C 12.5440000   18.8310000   22.4980000  
N 13.8890000   19.0680000   22.4500000  
O 10.5160000   18.6520000   23.8580000  
C 11.8520000   18.8330000   23.7930000  
O 12.4830000   19.0340000   24.8100000  
O 17.0830000   18.5610000   18.9190000  
O 15.0220000   18.2820000   17.1300000  
H 11.0050000   18.7070000   20.8310000  
H 10.2060000   18.4310000   23.0020000  
H 14.3100000   19.3540000   23.2730000  
H 17.7830000   18.9870000   19.4710000  
H 16.0070000   18.3060000   17.0410000  
C 16.6950000   18.9730000   21.7670000  
C 16.8260000   17.8300000   22.6440000  
C 17.8660000   17.8200000   23.5380000  
C 18.9010000   18.7590000   23.6270000  
C 18.7150000   19.9150000   22.7460000  
C 17.6450000   19.9880000   21.8900000  
C 16.0330000   16.6500000   22.8140000  
C 16.6980000   16.0260000   23.8610000  
N 17.7280000   16.7570000   24.3760000  
O 14.9670000   14.3670000   23.9410000  
C 16.2290000   14.7460000   24.3590000  
O 16.8140000   14.0920000   25.1930000  
O 19.6670000   20.8220000   22.8220000  
O 17.4990000   21.1250000   21.1610000  
H 15.2720000   16.2470000   22.1750000  
H 14.4710000   15.1970000   23.5790000  
H 18.2750000   16.5470000   25.1860000  
H 20.4270000   20.4460000   23.2870000  
H 16.8600000   20.9650000   20.4660000  
C 19.8930000   18.6180000   24.7270000  
C 20.8880000   17.5850000   24.6760000  
C 21.8120000   17.3770000   25.6670000  
C 21.7860000   18.1390000   26.8670000  
C 20.8810000   19.2340000   26.9380000  
C 19.8730000   19.3930000   25.9120000  
C 21.1060000   16.5600000   23.6870000  
C 22.2300000   15.7670000   24.0290000  
N 22.6530000   16.2860000   25.3130000  
O 22.1590000   14.2260000   22.2580000  
C 22.8260000   14.6180000   23.3650000  
O 23.7960000   14.0320000   23.8300000  
O 20.9210000   20.0690000   28.0720000  
O 18.9480000   20.3660000   26.1050000  
H 20.4210000   16.3770000   22.8730000  
H 21.3900000   14.7540000   22.0580000  
H 23.4500000   15.9740000   25.8470000  
H 21.6030000   19.7200000   28.7020000  
H 19.0970000   20.7690000   26.9780000  
H 22.5180000   17.9200000   27.7100000  
