76
001 
C 13.8080000   25.1680000   23.4310000  
C 12.7480000   25.1620000   24.5430000  
C 12.4000000   23.9890000   25.1750000  
C 12.8880000   22.7010000   24.8360000  
C 13.8840000   22.6130000   23.7430000  
C 14.2670000   23.7790000   23.0610000  
C 11.5030000   23.7450000   26.1920000  
C 11.5550000   22.4370000   26.5180000  
N 12.3640000   21.7330000   25.5970000  
O  9.9420000   22.6240000   28.2260000  
C 10.7340000   21.7880000   27.5160000  
O 10.6560000   20.5460000   27.6630000  
O 15.1270000   23.8330000   21.9830000  
O 14.1850000   26.2000000   22.8070000  
H 12.3310000   26.1410000   24.7760000  
H 10.8550000   24.5460000   26.5740000  
H 10.2830000   23.5070000   27.9210000  
H 15.4290000   22.9270000   21.8700000  
C 14.3670000   21.2850000   23.3270000  
C 14.0170000   20.6830000   22.0700000  
C 14.5260000   19.4790000   21.6590000  
C 15.4310000   18.6840000   22.3760000  
C 15.5820000   19.1900000   23.7050000  
C 15.0830000   20.4150000   24.2570000  
C 13.3150000   21.2140000   20.9620000  
C 13.5290000   20.3800000   19.8580000  
N 14.2790000   19.2630000   20.3030000  
O 12.1800000   21.6260000   18.4690000  
C 13.0150000   20.5740000   18.5370000  
O 13.3150000   19.9520000   17.5840000  
O 16.4490000   18.4810000   24.3990000  
O 15.4740000   20.9590000   25.4420000  
H 12.7750000   22.0600000   20.9940000  
H 11.9580000   21.7680000   19.4290000  
H 14.5840000   18.4500000   19.7270000  
H 16.7390000   17.7280000   23.8730000  
H 16.1670000   20.3450000   25.7690000  
C 16.0690000   17.3730000   21.8960000  
C 16.8530000   17.3240000   20.7270000  
C 17.1890000   16.1290000   20.1190000  
C 16.8160000   14.9000000   20.5300000  
C 16.1340000   14.8600000   21.7610000  
C 15.7230000   16.0670000   22.4150000  
C 17.5090000   18.3880000   19.9880000  
C 18.2400000   17.7610000   18.9670000  
N 17.9770000   16.3920000   19.0140000  
O 19.0770000   19.7280000   17.8520000  
C 19.0590000   18.3680000   17.8230000  
O 19.5560000   17.6710000   16.9640000  
O 15.6110000   13.7450000   22.3050000  
O 14.8480000   15.9540000   23.4450000  
H 17.5850000   19.5060000   20.2200000  
H 18.2390000   19.9810000   18.3910000  
H 18.4260000   15.6790000   18.4540000  
H 15.9720000   13.0550000   21.7370000  
H 14.6620000   16.7590000   23.9540000  
C 17.2770000   13.7050000   19.8470000  
C 18.6770000   13.4040000   19.9440000  
C 19.2380000   12.3400000   19.2470000  
C 18.4680000   11.5680000   18.4070000  
C 17.1090000   11.7510000   18.4460000  
C 16.5140000   12.9310000   19.0130000  
C 19.7490000   14.0330000   20.6620000  
C 20.8900000   13.2440000   20.4570000  
N 20.6020000   12.2400000   19.5570000  
O 22.5710000   14.4300000   21.7760000  
C 22.2020000   13.2730000   21.1500000  
O 23.0150000   12.3580000   20.9890000  
O 16.2830000   10.7970000   17.9030000  
O 15.1530000   13.1400000   18.9270000  
H 19.6590000   14.8030000   21.4760000  
H 21.8300000   15.0180000   21.6140000  
H 21.2900000   11.4780000   19.2510000  
H 15.4010000   10.8440000   18.2800000  
H 15.0450000   14.0040000   18.4620000  
H 18.8680000   10.6640000   17.8610000  
