76
001 
C 13.9410000   22.9610000   27.2510000  
C 12.5900000   23.4330000   26.8620000  
C 11.9890000   22.9480000   25.7380000  
C 12.5910000   22.0160000   24.8550000  
C 13.9030000   21.4510000   25.1450000  
C 14.5190000   21.9380000   26.3040000  
C 10.7840000   23.2270000   25.2450000  
C 10.6490000   22.4270000   24.0550000  
N 11.8140000   21.6660000   23.8280000  
O  8.5660000   23.3960000   23.5080000  
C  9.4920000   22.4660000   23.1090000  
O  9.4130000   21.7530000   22.1330000  
O 15.7630000   21.6730000   26.7480000  
O 14.4700000   23.3710000   28.2990000  
H 12.2180000   24.2050000   27.5340000  
H 10.1510000   23.9620000   25.5960000  
H  9.0800000   23.8400000   24.1870000  
H 16.2970000   21.2320000   26.0720000  
C 14.4880000   20.5410000   24.2240000  
C 15.0350000   20.9490000   23.0010000  
C 15.5330000   20.0960000   22.1260000  
C 15.6690000   18.7100000   22.3520000  
C 15.2190000   18.2930000   23.5880000  
C 14.6230000   19.1710000   24.5010000  
C 14.7410000   22.2130000   22.2710000  
C 15.3360000   22.0910000   21.0610000  
N 15.8890000   20.7800000   20.9750000  
O 14.8240000   24.3170000   20.3260000  
C 15.5770000   23.2250000   20.1420000  
O 16.3880000   23.1910000   19.2170000  
O 15.2410000   16.9870000   23.8650000  
O 14.2550000   18.7140000   25.7220000  
H 14.3200000   23.1580000   22.6520000  
H 14.1290000   24.1240000   20.9170000  
H 16.2430000   20.3500000   20.1060000  
H 15.7970000   16.4980000   23.2580000  
H 14.2550000   17.7170000   25.6740000  
C 16.0860000   17.8180000   21.2960000  
C 17.2840000   17.1180000   21.3490000  
C 17.6400000   16.2820000   20.3160000  
C 16.8750000   16.1060000   19.1480000  
C 15.7660000   16.9140000   18.9570000  
C 15.3290000   17.7300000   20.0270000  
C 18.2740000   16.9800000   22.4340000  
C 19.2390000   16.1300000   21.9200000  
N 18.8130000   15.6310000   20.6350000  
O 20.8060000   16.5080000   23.6950000  
C 20.4940000   15.7590000   22.5560000  
O 21.2230000   14.8940000   22.0970000  
O 15.1000000   16.8890000   17.7670000  
O 14.1770000   18.4900000   19.8820000  
H 18.2310000   17.5350000   23.3420000  
H 20.2000000   17.2540000   23.7400000  
H 19.3500000   15.0680000   20.0360000  
H 14.3020000   17.5140000   17.9020000  
H 13.9930000   18.9820000   20.7150000  
C 17.3730000   15.1130000   18.1740000  
C 17.5540000   13.7640000   18.5110000  
C 18.3510000   12.8830000   17.7570000  
C 19.0410000   13.2960000   16.6330000  
C 18.7950000   14.6170000   16.2080000  
C 17.9280000   15.4830000   16.9170000  
C 17.2910000   12.9660000   19.7040000  
C 17.9080000   11.7150000   19.6200000  
N 18.4620000   11.6420000   18.3010000  
O 17.4070000   10.8070000   21.6800000  
C 18.2290000   10.6600000   20.6050000  
O 19.0970000    9.8610000   20.4370000  
O 19.2640000   15.0470000   14.9710000  
O 17.8710000   16.7380000   16.4700000  
H 16.8710000   13.3850000   20.5910000  
H 16.9030000   11.6160000   21.6000000  
H 19.0650000   10.8540000   18.0440000  
H 19.0860000   16.0090000   14.8770000  
H 17.2750000   17.2100000   17.0650000  
H 19.7340000   12.6270000   16.0940000  
