76
001 
C 13.2480000   13.1710000   25.9200000  
C 13.8120000   13.0990000   27.3030000  
C 14.6580000   14.0980000   27.7250000  
C 14.9850000   15.1690000   26.8880000  
C 14.5550000   15.2090000   25.5430000  
C 13.7370000   14.1770000   25.0520000  
C 15.3200000   14.2860000   28.9540000  
C 16.0850000   15.4290000   28.7660000  
N 15.8840000   15.9230000   27.5050000  
O 17.0180000   15.3020000   30.9480000  
C 17.0300000   15.9900000   29.7170000  
O 17.7420000   16.9340000   29.4960000  
O 13.2670000   14.1790000   23.7920000  
O 12.4970000   12.2110000   25.6710000  
H 13.6070000   12.1930000   27.8020000  
H 15.2660000   13.6880000   29.8510000  
H 16.3280000   14.6430000   30.7800000  
H 13.5780000   14.9170000   23.3360000  
C 15.0330000   16.2190000   24.6050000  
C 15.9790000   15.8720000   23.6850000  
C 16.3360000   16.7590000   22.7290000  
C 15.8250000   18.0620000   22.5410000  
C 14.8120000   18.4070000   23.5070000  
C 14.4670000   17.5320000   24.5960000  
C 16.5540000   14.5660000   23.3750000  
C 17.2580000   14.8280000   22.1720000  
N 17.1650000   16.1480000   21.7920000  
O 17.7070000   12.5260000   21.7950000  
C 17.8310000   13.7710000   21.2970000  
O 18.2640000   13.9370000   20.1550000  
O 14.3240000   19.6610000   23.4760000  
O 13.5840000   17.8890000   25.5520000  
H 16.3930000   13.6390000   23.8850000  
H 17.2040000   12.6410000   22.5980000  
H 17.3350000   16.6020000   20.8580000  
H 14.1090000   19.8770000   22.5010000  
H 13.4350000   18.8710000   25.4490000  
C 16.1380000   18.9590000   21.4040000  
C 15.4930000   18.7840000   20.1620000  
C 15.8670000   19.5410000   19.1020000  
C 16.8160000   20.5650000   19.0630000  
C 17.3110000   20.9220000   20.3280000  
C 16.9730000   20.1020000   21.4950000  
C 14.5050000   17.8450000   19.7800000  
C 14.2150000   18.1130000   18.4600000  
N 15.1250000   19.1310000   18.0430000  
O 12.4760000   16.5030000   18.3500000  
C 13.1550000   17.4130000   17.6090000  
O 13.0160000   17.6100000   16.4280000  
O 18.1580000   21.9100000   20.5540000  
O 17.6000000   20.4030000   22.7360000  
H 13.9780000   17.0960000   20.3490000  
H 12.8680000   16.6730000   19.2400000  
H 15.3060000   19.4260000   17.1320000  
H 18.4940000   21.8150000   21.4750000  
H 17.3100000   19.6550000   23.3430000  
C 17.1890000   21.2130000   17.7150000  
C 16.5130000   22.3360000   17.2310000  
C 16.8570000   23.0930000   16.1820000  
C 17.9010000   22.7160000   15.3980000  
C 18.7320000   21.6640000   15.8410000  
C 18.4170000   20.9510000   17.0450000  
C 15.4550000   23.0650000   17.8660000  
C 15.2790000   24.2700000   17.2220000  
N 16.1650000   24.3180000   16.1720000  
O 13.5350000   25.0490000   18.6040000  
C 14.3050000   25.3490000   17.5320000  
O 14.1690000   26.3390000   16.8220000  
O 19.8580000   21.3610000   15.2150000  
O 19.3160000   19.9530000   17.5210000  
H 14.9010000   22.7260000   18.7270000  
H 13.8970000   24.2600000   18.9040000  
H 16.4170000   25.1350000   15.6110000  
H 20.0330000   20.4570000   15.5830000  
H 18.9730000   19.4450000   18.2500000  
H 18.1520000   23.3230000   14.5000000  
