76
001 
C  9.6900000   20.2800000   17.5600000  
C  9.8090000   21.7740000   17.5420000  
C 10.8790000   22.3670000   18.1200000  
C 11.8410000   21.6390000   18.7560000  
C 11.8660000   20.1840000   18.8140000  
C 10.7970000   19.5250000   18.1700000  
C 11.1810000   23.7510000   18.3380000  
C 12.3380000   23.7700000   19.0580000  
N 12.8310000   22.4320000   19.2990000  
O 12.4190000   26.0730000   19.2310000  
C 12.9270000   24.9580000   19.7090000  
O 13.8850000   24.9420000   20.4850000  
O 10.5940000   18.1730000   18.3600000  
O  8.7750000   19.6760000   17.0290000  
H  9.0570000   22.3650000   17.0300000  
H 10.6350000   24.5980000   17.9920000  
H 11.7310000   25.7810000   18.6070000  
H 11.3980000   17.7460000   18.8560000  
C 12.9940000   19.4490000   19.4950000  
C 12.7390000   18.8880000   20.7160000  
C 13.7370000   18.3930000   21.5100000  
C 15.0840000   18.3060000   21.1200000  
C 15.3260000   18.7230000   19.7910000  
C 14.3210000   19.3090000   19.0010000  
C 11.6170000   19.0650000   21.5470000  
C 11.8980000   18.3820000   22.7030000  
N 13.2490000   18.0020000   22.7400000  
O  9.8010000   18.7300000   23.6700000  
C 11.0210000   18.1360000   23.8130000  
O 11.3340000   17.5360000   24.8420000  
O 16.5820000   18.6840000   19.2750000  
O 14.6390000   19.8260000   17.7890000  
H 10.6480000   19.4990000   21.2170000  
H  9.7580000   19.1590000   22.7470000  
H 13.6950000   17.4730000   23.4330000  
H 17.1270000   18.1920000   19.8960000  
H 15.6310000   19.9310000   17.7180000  
C 16.1510000   17.7510000   21.9920000  
C 17.0270000   16.6930000   21.5550000  
C 17.8420000   16.1720000   22.5550000  
C 18.1540000   16.7060000   23.8150000  
C 17.4190000   17.8940000   24.1200000  
C 16.4010000   18.3610000   23.2160000  
C 17.0870000   15.7970000   20.4420000  
C 17.9460000   14.7610000   20.7540000  
N 18.4180000   14.9580000   22.1070000  
O 17.5270000   13.5830000   18.7810000  
C 18.2340000   13.5660000   19.9010000  
O 18.9430000   12.6490000   20.2470000  
O 17.5920000   18.5630000   25.2900000  
O 15.7150000   19.4900000   23.6340000  
H 16.4420000   15.7560000   19.5840000  
H 17.3170000   14.5060000   18.6180000  
H 19.2760000   14.4950000   22.4900000  
H 18.2360000   18.0740000   25.9050000  
H 15.4860000   20.0600000   22.8560000  
C 19.1170000   16.1550000   24.7220000  
C 20.4710000   16.2060000   24.4360000  
C 21.4440000   15.5120000   25.1730000  
C 21.1660000   14.7150000   26.2870000  
C 19.8370000   14.5320000   26.5410000  
C 18.8190000   15.2540000   25.8160000  
C 21.1500000   16.8910000   23.3490000  
C 22.5490000   16.7340000   23.5330000  
N 22.7330000   15.9180000   24.7060000  
O 23.2280000   18.4790000   21.8970000  
C 23.6160000   17.5470000   22.7860000  
O 24.7590000   17.3580000   23.1400000  
O 19.4850000   13.6960000   27.5290000  
O 17.5230000   14.9600000   26.0920000  
H 20.6780000   17.5780000   22.6860000  
H 22.2700000   18.5270000   21.8440000  
H 23.6240000   15.5200000   25.0090000  
H 20.0770000   12.9120000   27.4670000  
H 17.5510000   14.0740000   26.5240000  
H 21.9410000   14.1960000   26.8090000  
