76
001 
C 14.2050000   19.6910000   28.5680000  
C 13.3080000   20.7900000   28.7770000  
C 12.8620000   21.3860000   27.6030000  
C 13.3360000   21.0710000   26.3500000  
C 14.3600000   20.0590000   26.1400000  
C 14.7660000   19.4010000   27.2380000  
C 11.9080000   22.4170000   27.3380000  
C 11.8690000   22.6300000   25.9620000  
N 12.7560000   21.7090000   25.3920000  
O 10.4220000   24.4370000   26.1110000  
C 10.9140000   23.4940000   25.2880000  
O 10.6950000   23.4920000   24.0770000  
O 15.7260000   18.4290000   27.2150000  
O 14.5750000   18.9960000   29.5370000  
H 12.9070000   20.9580000   29.7780000  
H 11.1780000   22.8050000   28.0200000  
H 10.7470000   24.2050000   27.0000000  
H 16.1100000   18.4890000   26.3290000  
C 14.6690000   19.5570000   24.7620000  
C 15.6730000   20.2550000   24.0750000  
C 16.0470000   19.6480000   22.8870000  
C 15.3940000   18.5970000   22.2330000  
C 14.4330000   17.8690000   22.9500000  
C 14.0160000   18.3690000   24.2250000  
C 16.4300000   21.4760000   24.3110000  
C 17.2550000   21.5430000   23.1680000  
N 17.0750000   20.3660000   22.3480000  
O 18.6020000   23.2500000   24.0260000  
C 18.3120000   22.5780000   22.8960000  
O 18.8210000   22.8040000   21.8180000  
O 13.7500000   16.8420000   22.3680000  
O 13.1910000   17.5930000   25.0290000  
H 16.2580000   22.1950000   25.1330000  
H 18.1840000   22.6780000   24.6780000  
H 17.5940000   20.2770000   21.4170000  
H 14.2790000   16.3840000   21.6860000  
H 13.0050000   16.7430000   24.5120000  
C 15.9330000   18.1290000   20.9620000  
C 16.7180000   17.0160000   20.8670000  
C 17.2640000   16.6120000   19.7120000  
C 17.1550000   17.2320000   18.4960000  
C 16.3650000   18.4230000   18.5670000  
C 15.7380000   18.8080000   19.7440000  
C 17.2970000   16.0820000   21.8630000  
C 18.1170000   15.2070000   21.1960000  
N 18.0880000   15.5050000   19.8390000  
O 18.7050000   13.8340000   23.0050000  
C 18.9220000   14.0600000   21.7030000  
O 19.7020000   13.3420000   21.0780000  
O 16.3110000   19.2840000   17.4970000  
O 15.1430000   20.0220000   19.8510000  
H 17.1160000   16.0990000   22.9050000  
H 18.0130000   14.4350000   23.3420000  
H 18.6100000   15.1150000   19.0380000  
H 15.5360000   19.8990000   17.6250000  
H 14.6740000   20.1200000   20.7160000  
C 17.6360000   16.5740000   17.2930000  
C 16.8540000   15.5840000   16.7020000  
C 17.4210000   14.7880000   15.7370000  
C 18.7140000   14.8950000   15.2210000  
C 19.4870000   15.9240000   15.7580000  
C 19.0230000   16.6780000   16.8070000  
C 15.5720000   15.0510000   17.0600000  
C 15.3670000   13.9400000   16.2360000  
N 16.4710000   13.8390000   15.4080000  
O 13.2290000   13.4780000   17.1470000  
C 14.1030000   13.1270000   16.1040000  
O 13.8190000   12.3150000   15.2270000  
O 20.7900000   16.0160000   15.2590000  
O 19.8400000   17.4920000   17.5520000  
H 14.8970000   15.4520000   17.7360000  
H 13.7030000   14.2450000   17.5140000  
H 16.4340000   13.1730000   14.6500000  
H 21.2090000   16.4830000   16.0290000  
H 19.1960000   17.8030000   18.2450000  
H 19.0370000   14.2780000   14.4330000  
