76
001 
C 11.9280000   12.3830000   23.9310000  
C 12.6230000   11.1870000   23.4110000  
C 13.9400000   11.2960000   23.0410000  
C 14.6880000   12.5180000   23.0000000  
C 13.9680000   13.7100000   23.3950000  
C 12.6770000   13.6350000   23.7940000  
C 14.7930000   10.3770000   22.5590000  
C 15.9350000   11.0290000   22.2220000  
N 15.8760000   12.3720000   22.5080000  
O 17.0220000    9.0490000   21.4810000  
C 17.2410000   10.3690000   21.8020000  
O 18.2910000   10.9420000   21.6660000  
O 11.9190000   14.7520000   24.0010000  
O 10.7800000   12.3130000   24.3930000  
H 12.1400000   10.2670000   23.3660000  
H 14.5930000    9.3050000   22.3750000  
H 16.0790000    8.8240000   21.5930000  
H 12.4360000   15.6070000   23.6550000  
C 14.5960000   14.9480000   23.0350000  
C 14.6190000   15.3630000   21.6910000  
C 15.0040000   16.6440000   21.3450000  
C 15.5930000   17.6060000   22.1890000  
C 15.8300000   17.0380000   23.4860000  
C 15.3220000   15.7600000   23.8970000  
C 14.0810000   14.7620000   20.4870000  
C 14.2050000   15.7220000   19.4750000  
N 14.7620000   16.8490000   20.0110000  
O 13.5460000   14.2500000   17.6430000  
C 13.9380000   15.5120000   18.0000000  
O 14.2150000   16.3820000   17.1420000  
O 16.4950000   17.8390000   24.3970000  
O 15.4010000   15.4650000   25.2440000  
H 13.6570000   13.7370000   20.3900000  
H 13.2080000   13.9450000   18.4530000  
H 15.0750000   17.7010000   19.5150000  
H 16.7570000   18.7000000   23.8900000  
H 16.3010000   15.8320000   25.5660000  
C 15.9350000   19.0210000   21.7620000  
C 15.2430000   20.1640000   22.1640000  
C 15.5280000   21.4000000   21.6170000  
C 16.5800000   21.6020000   20.6420000  
C 17.2730000   20.4530000   20.2670000  
C 16.8590000   19.1890000   20.6760000  
C 14.2200000   20.3260000   23.1440000  
C 13.9060000   21.6870000   23.0510000  
N 14.6100000   22.3130000   22.0090000  
O 12.3360000   21.4980000   24.9010000  
C 12.9250000   22.3130000   24.0410000  
O 12.7520000   23.5250000   24.0190000  
O 18.4450000   20.4660000   19.5500000  
O 17.6300000   18.1100000   20.3910000  
H 13.8630000   19.5820000   23.9220000  
H 12.9300000   20.6520000   24.8550000  
H 14.5320000   23.2930000   21.7350000  
H 18.8510000   19.5950000   19.5180000  
H 17.2610000   17.3560000   20.8830000  
C 17.0190000   22.9700000   20.2060000  
C 18.2490000   23.5080000   20.5500000  
C 18.7060000   24.7910000   20.3230000  
C 17.9360000   25.6580000   19.5600000  
C 16.6870000   25.1690000   19.1190000  
C 16.1920000   23.8890000   19.5050000  
C 19.3220000   22.9270000   21.3010000  
C 20.3760000   23.8730000   21.3860000  
N 19.9970000   24.9780000   20.6750000  
O 21.9570000   22.6090000   22.5170000  
C 21.7470000   23.7630000   21.8680000  
O 22.6200000   24.6210000   21.6990000  
O 15.7720000   26.0880000   18.6590000  
O 14.8460000   23.5820000   19.2240000  
H 19.4410000   21.9210000   21.6050000  
H 21.1140000   22.2040000   22.7560000  
H 20.5070000   25.8200000   20.4820000  
H 14.8320000   25.7710000   18.6910000  
H 14.7260000   22.6480000   19.3420000  
H 18.2720000   26.6610000   19.3440000  
