76
001 
C 15.9200000   22.2000000   27.9170000  
C 14.6380000   22.2160000   28.5600000  
C 13.6120000   21.4310000   28.0120000  
C 13.8300000   20.5080000   26.9910000  
C 15.0080000   20.5220000   26.2400000  
C 16.0150000   21.3770000   26.6840000  
C 12.2360000   21.3320000   28.3410000  
C 11.6850000   20.4530000   27.4890000  
N 12.6960000   19.9220000   26.6270000  
O  9.3430000   20.9950000   28.0740000  
C 10.1680000   20.2500000   27.3300000  
O  9.7140000   19.4380000   26.5700000  
O 17.2490000   21.3750000   26.0520000  
O 16.8000000   22.8200000   28.4160000  
H 14.4570000   22.8120000   29.4690000  
H 11.6880000   22.0390000   28.9900000  
H  9.9690000   21.7010000   28.4180000  
H 17.0990000   20.7580000   25.3230000  
C 15.1900000   19.7660000   24.9920000  
C 15.0240000   20.4770000   23.7590000  
C 15.1770000   19.8080000   22.6250000  
C 15.6150000   18.4590000   22.5010000  
C 15.7980000   17.7600000   23.7250000  
C 15.6620000   18.4630000   24.9880000  
C 14.7960000   21.8630000   23.4860000  
C 14.9270000   21.9630000   22.0550000  
N 15.2160000   20.6760000   21.5220000  
O 14.8070000   24.3730000   21.8200000  
C 14.9740000   23.2110000   21.2150000  
O 15.1560000   23.1580000   20.0430000  
O 16.1740000   16.4700000   23.7480000  
O 15.8230000   17.8010000   26.1560000  
H 14.8070000   22.6670000   24.2160000  
H 14.8620000   24.0560000   22.7380000  
H 15.0740000   20.3620000   20.5830000  
H 16.4740000   16.2520000   22.7820000  
H 15.7040000   16.8240000   26.0830000  
C 15.8010000   17.8300000   21.2170000  
C 17.0830000   17.4040000   20.7730000  
C 17.2170000   16.8470000   19.5150000  
C 16.1310000   16.6130000   18.6200000  
C 14.8190000   16.8040000   19.1340000  
C 14.6750000   17.5520000   20.3230000  
C 18.4890000   17.7010000   21.1330000  
C 19.2680000   17.2690000   20.0380000  
N 18.5220000   16.6690000   19.0720000  
O 21.4670000   17.7330000   21.1550000  
C 20.8100000   17.1550000   20.1500000  
O 21.5140000   16.5520000   19.3690000  
O 13.6870000   16.4520000   18.4070000  
O 13.4090000   18.0160000   20.6360000  
H 18.8750000   18.0590000   22.0940000  
H 20.7860000   18.1210000   21.6970000  
H 18.8090000   16.2620000   18.1960000  
H 12.9110000   16.8520000   18.8240000  
H 13.4200000   18.3530000   21.5540000  
C 16.3510000   16.1090000   17.2410000  
C 17.0180000   14.8870000   17.0030000  
C 17.1840000   14.4310000   15.7250000  
C 16.8270000   15.1150000   14.5760000  
C 16.2160000   16.3770000   14.7750000  
C 16.0590000   16.9440000   16.0440000  
C 17.4160000   13.8170000   17.8890000  
C 17.8250000   12.7270000   17.1040000  
N 17.7200000   13.1620000   15.8220000  
O 18.2130000   11.2580000   19.0060000  
C 18.3400000   11.4400000   17.5910000  
O 18.7880000   10.5170000   16.8990000  
O 15.7850000   17.0530000   13.6700000  
O 15.4770000   18.1990000   16.1210000  
H 17.3890000   13.8190000   18.9460000  
H 17.8320000   12.1260000   19.2890000  
H 18.1860000   12.6160000   15.1100000  
H 15.4570000   17.9380000   13.9890000  
H 15.4170000   18.3940000   17.0700000  
H 17.0920000   14.8040000   13.5400000  
