76
001 
C 14.6890000   15.7710000   28.6020000  
C 14.1950000   16.9220000   29.4650000  
C 14.0560000   18.1510000   28.8900000  
C 14.4400000   18.3970000   27.5340000  
C 14.9820000   17.3800000   26.7350000  
C 15.1410000   16.1260000   27.2340000  
C 13.6970000   19.3680000   29.4340000  
C 13.8180000   20.3030000   28.3810000  
N 14.2970000   19.6560000   27.2020000  
O 13.4250000   22.1360000   29.7700000  
C 13.6010000   21.7810000   28.4820000  
O 13.6560000   22.6260000   27.6280000  
O 15.5810000   15.0380000   26.5470000  
O 14.8560000   14.7440000   29.1590000  
H 13.9700000   16.7300000   30.4500000  
H 13.4810000   19.5350000   30.5470000  
H 13.4220000   21.2710000   30.1830000  
H 15.8630000   15.3890000   25.7000000  
C 15.1190000   17.6560000   25.2790000  
C 16.1640000   18.4350000   24.7410000  
C 16.2570000   18.5350000   23.4100000  
C 15.3750000   18.0260000   22.4430000  
C 14.3040000   17.2520000   22.9750000  
C 14.1630000   17.0950000   24.3810000  
C 17.2720000   19.1360000   25.3700000  
C 17.8770000   19.8560000   24.3520000  
N 17.2260000   19.5590000   23.1320000  
O 19.6700000   20.7120000   25.7530000  
C 18.9850000   20.8290000   24.5710000  
O 19.2030000   21.8340000   23.8720000  
O 13.4400000   16.6450000   22.0850000  
O 13.1310000   16.3610000   24.9120000  
H 17.2770000   19.2940000   26.4310000  
H 19.3100000   19.9080000   26.2410000  
H 17.6330000   19.8930000   22.2140000  
H 13.7310000   16.7980000   21.1870000  
H 12.5140000   16.1990000   24.2100000  
C 15.5360000   18.3560000   21.0490000  
C 16.4660000   17.7130000   20.2480000  
C 16.4300000   17.7990000   18.8700000  
C 15.7000000   18.7890000   18.1450000  
C 14.9200000   19.5860000   18.9840000  
C 14.7940000   19.3360000   20.4100000  
C 17.5220000   16.7560000   20.5680000  
C 18.0170000   16.3630000   19.3010000  
N 17.4450000   17.1100000   18.2590000  
O 19.5760000   14.8130000   20.3200000  
C 19.1900000   15.3960000   19.1500000  
O 19.6950000   15.0830000   18.1220000  
O 14.1610000   20.6690000   18.4750000  
O 13.8820000   20.0760000   21.1140000  
H 17.8540000   16.4740000   21.5310000  
H 19.1280000   15.2910000   21.0350000  
H 17.5400000   16.8230000   17.3050000  
H 13.6180000   21.0820000   19.1770000  
H 14.1990000   20.0000000   22.0440000  
C 15.8920000   19.1260000   16.7270000  
C 15.7620000   18.1360000   15.7090000  
C 16.0690000   18.3170000   14.4060000  
C 16.4620000   19.5680000   13.9680000  
C 16.5710000   20.6020000   14.9120000  
C 16.3550000   20.3840000   16.2850000  
C 15.3930000   16.7410000   15.7790000  
C 15.5120000   16.1730000   14.5130000  
N 16.0220000   17.1700000   13.7230000  
O 14.8690000   13.9900000   14.9570000  
C 15.3060000   14.8410000   13.9880000  
O 15.5070000   14.5050000   12.8180000  
O 16.9160000   21.8340000   14.4660000  
O 16.5160000   21.4590000   17.0950000  
H 15.0400000   16.1870000   16.6950000  
H 14.7120000   14.5970000   15.6700000  
H 16.1270000   17.0800000   12.7100000  
H 16.9190000   22.3240000   15.3460000  
H 16.0570000   21.3030000   17.9740000  
H 16.6640000   19.7400000   12.9440000  
