76
001 
C 14.4630000   14.8340000   27.9200000  
C 14.6670000   15.7260000   29.0650000  
C 14.7790000   17.0760000   28.8810000  
C 14.7780000   17.7000000   27.6280000  
C 14.7790000   16.8460000   26.4320000  
C 14.6110000   15.5190000   26.5620000  
C 14.8150000   18.1220000   29.8460000  
C 14.7710000   19.2830000   29.0480000  
N 14.8570000   19.0380000   27.6540000  
O 14.3340000   20.6450000   30.9280000  
C 14.5130000   20.6320000   29.6290000  
O 14.5340000   21.6660000   28.9560000  
O 14.6910000   14.6670000   25.5320000  
O 14.3010000   13.6450000   27.9240000  
H 14.5370000   15.2470000   30.0450000  
H 14.8930000   18.0340000   30.9260000  
H 14.4770000   19.7000000   31.1030000  
H 14.6400000   15.1550000   24.6900000  
C 14.8320000   17.4330000   25.1180000  
C 16.0770000   17.9760000   24.6290000  
C 16.2070000   18.2810000   23.3270000  
C 15.1460000   18.1080000   22.3700000  
C 13.9130000   17.6630000   22.8750000  
C 13.7200000   17.3600000   24.2550000  
C 17.3470000   18.1400000   25.3380000  
C 18.1950000   18.5860000   24.3370000  
N 17.5090000   18.5450000   23.0870000  
O 20.0840000   18.6490000   25.7350000  
C 19.6520000   18.8280000   24.4850000  
O 20.4430000   18.9970000   23.6020000  
O 12.9470000   17.5670000   21.9450000  
O 12.4950000   16.9120000   24.6920000  
H 17.4340000   18.1590000   26.4820000  
H 19.3710000   18.2440000   26.2730000  
H 17.8980000   18.9880000   22.2450000  
H 13.3300000   17.0040000   21.3070000  
H 11.8740000   16.7480000   23.8800000  
C 15.3640000   18.6030000   20.9550000  
C 16.2470000   17.8360000   20.1870000  
C 16.6270000   18.2580000   18.9300000  
C 16.1640000   19.4900000   18.3260000  
C 15.1190000   20.1630000   18.9870000  
C 14.7990000   19.7680000   20.3380000  
C 16.8530000   16.5450000   20.4100000  
C 17.5840000   16.2340000   19.2290000  
N 17.4650000   17.3370000   18.3630000  
O 18.4770000   14.1640000   19.9620000  
C 18.4030000   15.0630000   18.9370000  
O 18.9600000   14.9150000   17.8680000  
O 14.5460000   21.3260000   18.4820000  
O 13.8150000   20.4390000   20.9800000  
H 16.8230000   16.0050000   21.3660000  
H 17.9970000   14.5410000   20.7590000  
H 17.9270000   17.4480000   17.4800000  
H 14.1900000   21.7980000   19.2930000  
H 13.3270000   19.8480000   21.5600000  
C 16.5220000   19.8030000   16.9180000  
C 15.7980000   19.3670000   15.7990000  
C 16.1260000   19.7900000   14.5340000  
C 17.1880000   20.6620000   14.2780000  
C 17.9400000   21.1790000   15.3530000  
C 17.5680000   20.7590000   16.6360000  
C 14.7390000   18.4370000   15.6500000  
C 14.4010000   18.3760000   14.3150000  
N 15.1440000   19.3080000   13.6320000  
O 12.6670000   16.8240000   14.6940000  
C 13.2870000   17.5190000   13.7810000  
O 13.0410000   17.3610000   12.6220000  
O 18.9240000   22.0820000   15.0990000  
O 18.3260000   21.2850000   17.6770000  
H 14.3300000   17.9020000   16.5090000  
H 13.1320000   17.1990000   15.4960000  
H 15.0130000   19.4840000   12.6520000  
H 19.2620000   22.2790000   15.9600000  
H 17.7770000   21.3890000   18.4380000  
H 17.4880000   20.9820000   13.2930000  
