76
001 
C 12.3430000   11.6750000   19.8590000  
C 12.8080000   10.7350000   20.9110000  
C 13.4570000   11.2180000   22.0070000  
C 13.8060000   12.5640000   22.1960000  
C 13.5260000   13.4610000   21.1290000  
C 12.7650000   13.1110000   20.0740000  
C 14.0060000   10.5710000   23.1590000  
C 14.6700000   11.5930000   23.9240000  
N 14.5130000   12.8700000   23.3050000  
O 15.4660000   10.1260000   25.6900000  
C 15.4310000   11.4300000   25.1940000  
O 15.9410000   12.3590000   25.8530000  
O 12.2930000   13.9630000   19.1970000  
O 11.6130000   11.3190000   18.9420000  
H 12.6300000    9.6670000   20.8110000  
H 13.8950000    9.5380000   23.3920000  
H 15.0540000    9.5560000   25.0150000  
H 11.9250000   13.5560000   18.4480000  
C 14.0610000   14.8290000   21.3140000  
C 15.2530000   15.2320000   20.7330000  
C 15.7000000   16.5340000   20.9370000  
C 14.9590000   17.5220000   21.7190000  
C 13.7960000   17.1030000   22.3790000  
C 13.3270000   15.7620000   22.0570000  
C 16.2440000   14.5670000   19.8910000  
C 17.1580000   15.5560000   19.5650000  
N 16.9390000   16.6830000   20.3820000  
O 18.5180000   14.1300000   18.1370000  
C 18.4160000   15.3460000   18.7740000  
O 19.3200000   16.2020000   18.6000000  
O 12.9990000   17.9200000   23.1350000  
O 12.1310000   15.4260000   22.6540000  
H 16.1920000   13.5030000   19.6190000  
H 17.6610000   13.7380000   18.4380000  
H 17.6380000   17.3980000   20.6580000  
H 13.4020000   18.8170000   23.4320000  
H 11.9830000   14.5030000   22.4920000  
C 15.5820000   18.9000000   21.8390000  
C 15.8880000   19.7650000   20.7540000  
C 16.4720000   20.9400000   20.9740000  
C 16.9090000   21.5240000   22.1310000  
C 16.6430000   20.6760000   23.2740000  
C 15.9760000   19.3870000   23.1220000  
C 15.6780000   19.6230000   19.2740000  
C 16.2970000   20.7350000   18.7170000  
N 16.6370000   21.5840000   19.8080000  
O 16.0170000   20.1920000   16.3980000  
C 16.4440000   21.1070000   17.3500000  
O 17.0380000   22.1540000   17.1140000  
O 17.0400000   21.0310000   24.5540000  
O 15.7940000   18.6780000   24.2940000  
H 15.0930000   18.8400000   18.7370000  
H 15.9230000   19.4120000   16.9410000  
H 16.8400000   22.5790000   19.8610000  
H 16.5140000   20.4260000   25.1860000  
H 15.3810000   17.9090000   23.9030000  
C 17.6830000   22.8040000   22.1450000  
C 17.3200000   23.8690000   22.9380000  
C 18.0830000   24.9800000   23.1690000  
C 19.3650000   25.0570000   22.6070000  
C 19.8390000   23.9780000   21.8740000  
C 19.0420000   22.8090000   21.6900000  
C 15.9750000   24.2360000   23.4910000  
C 16.0320000   25.5150000   24.0040000  
N 17.3310000   25.9310000   23.8610000  
O 13.7150000   25.8040000   24.4960000  
C 14.9640000   26.2860000   24.6340000  
O 15.1250000   27.3470000   25.1900000  
O 21.1210000   24.0250000   21.3700000  
O 19.5490000   21.7750000   20.9370000  
H 15.0810000   23.6100000   23.4930000  
H 13.8510000   24.9090000   24.1670000  
H 17.7430000   26.7440000   24.2450000  
H 21.2530000   23.1940000   20.8400000  
H 18.7900000   21.1710000   20.7730000  
H 19.9990000   25.9740000   22.8050000  
