76
001 
C 11.4890000   15.8470000   15.7990000  
C 10.5290000   14.9880000   16.5700000  
C 10.7320000   14.7310000   17.8820000  
C 11.8040000   15.2560000   18.5930000  
C 12.7070000   16.1530000   17.9490000  
C 12.5050000   16.5380000   16.6110000  
C 10.0160000   13.9350000   18.7990000  
C 10.6660000   14.0820000   19.9850000  
N 11.7110000   14.9590000   19.9080000  
O  9.4680000   12.4260000   21.0370000  
C 10.3230000   13.4000000   21.2710000  
O 10.8290000   13.6520000   22.3730000  
O 13.2530000   17.4540000   15.9580000  
O 11.4980000   16.0090000   14.5460000  
H  9.7980000   14.4520000   15.9450000  
H  9.0750000   13.4780000   18.6170000  
H  9.4250000   12.2930000   20.0780000  
H 12.6790000   17.8090000   15.3580000  
C 13.7100000   16.8380000   18.7920000  
C 14.8630000   16.1610000   19.2190000  
C 15.6300000   16.6890000   20.1820000  
C 15.5510000   17.9510000   20.7560000  
C 14.4230000   18.7180000   20.2860000  
C 13.5400000   18.1460000   19.3110000  
C 15.3390000   14.7940000   18.9650000  
C 16.4360000   14.6430000   19.7770000  
N 16.5890000   15.8140000   20.5380000  
O 17.1810000   12.7450000   18.6130000  
C 17.3220000   13.4860000   19.7450000  
O 18.2350000   13.3050000   20.5400000  
O 14.2510000   20.0040000   20.8200000  
O 12.4800000   18.9210000   18.8430000  
H 14.9630000   14.0810000   18.3420000  
H 16.5400000   13.2900000   18.1160000  
H 17.3230000   16.0370000   21.2460000  
H 14.9730000   20.1310000   21.5070000  
H 12.5920000   19.8120000   19.2720000  
C 16.3940000   18.3840000   21.9350000  
C 17.2940000   19.4910000   21.7310000  
C 17.9740000   19.9100000   22.8530000  
C 17.9430000   19.3540000   24.1600000  
C 17.1160000   18.1690000   24.3500000  
C 16.2950000   17.7770000   23.2320000  
C 17.6370000   20.4460000   20.6260000  
C 18.4900000   21.3440000   21.2190000  
N 18.6580000   21.0270000   22.6180000  
O 18.7740000   22.7870000   19.3010000  
C 19.0390000   22.6060000   20.5930000  
O 19.8170000   23.3460000   21.1920000  
O 17.0460000   17.5260000   25.4600000  
O 15.3960000   16.7690000   23.4560000  
H 17.4770000   20.3550000   19.5510000  
H 18.1120000   22.1120000   19.0440000  
H 19.2070000   21.5750000   23.2360000  
H 16.1540000   17.1700000   25.4670000  
H 14.7240000   16.7440000   22.7960000  
C 18.7180000   19.9300000   25.2640000  
C 18.5680000   21.2580000   25.7040000  
C 19.3780000   21.8490000   26.6350000  
C 20.3940000   21.1600000   27.3420000  
C 20.6260000   19.8540000   26.8510000  
C 19.8380000   19.2470000   25.8330000  
C 17.6730000   22.2670000   25.2740000  
C 17.8370000   23.3660000   26.0700000  
N 18.9820000   23.1410000   26.8530000  
O 15.8600000   24.6600000   25.3690000  
C 17.0590000   24.6540000   26.1130000  
O 17.3990000   25.6530000   26.7150000  
O 21.6260000   19.0830000   27.2580000  
O 20.1100000   18.0260000   25.3980000  
H 16.9060000   22.0500000   24.5140000  
H 15.8600000   23.7420000   24.9620000  
H 19.4480000   23.8370000   27.4650000  
H 21.9650000   18.4860000   26.4790000  
H 19.3640000   17.9190000   24.7750000  
H 21.0200000   21.7470000   27.9370000  
