76
001 
C 16.2490000   12.9860000   26.7770000  
C 15.9860000   11.6530000   26.1400000  
C 15.6960000   11.6140000   24.7940000  
C 15.6190000   12.7570000   23.9750000  
C 15.8260000   14.0540000   24.5530000  
C 16.2350000   14.1880000   25.8580000  
C 15.4460000   10.5610000   23.8830000  
C 15.2510000   11.0860000   22.6480000  
N 15.3290000   12.4750000   22.6750000  
O 15.4020000    9.0110000   21.5170000  
C 15.2600000   10.3540000   21.3710000  
O 15.0970000   10.9040000   20.2720000  
O 16.6630000   15.3450000   26.4290000  
O 16.4740000   13.0050000   27.9860000  
H 16.0700000   10.8050000   26.7980000  
H 15.4550000    9.6160000   24.1840000  
H 15.3240000    8.9330000   22.4750000  
H 16.5760000   15.2230000   27.4380000  
C 15.8010000   15.1780000   23.6840000  
C 14.6460000   15.9800000   23.6240000  
C 14.5790000   17.1540000   22.9780000  
C 15.5610000   17.6450000   22.1240000  
C 16.7410000   16.8730000   22.1610000  
C 16.9240000   15.6600000   22.9140000  
C 13.4110000   15.8620000   24.3620000  
C 12.6910000   17.0500000   24.1770000  
N 13.3910000   17.8560000   23.2180000  
O 10.8690000   16.3070000   25.5100000  
C 11.4180000   17.3350000   24.7950000  
O 10.7030000   18.3020000   24.4720000  
O 17.8250000   17.3600000   21.4590000  
O 18.1910000   15.1790000   23.2420000  
H 13.1290000   15.0810000   25.0370000  
H 11.3440000   15.5080000   25.3030000  
H 13.0930000   18.7120000   22.8690000  
H 17.4910000   18.2150000   21.2100000  
H 18.8460000   15.7640000   22.7360000  
C 15.4150000   18.8250000   21.2570000  
C 16.2420000   19.9120000   21.5360000  
C 16.1860000   21.0400000   20.7250000  
C 15.3030000   21.1590000   19.6400000  
C 14.5220000   20.0300000   19.2720000  
C 14.5630000   18.8740000   20.1350000  
C 17.2340000   20.1290000   22.5550000  
C 17.6580000   21.3990000   22.3450000  
N 17.0140000   22.0380000   21.2560000  
O 18.8950000   21.5010000   24.3100000  
C 18.6650000   22.1240000   23.1320000  
O 19.1470000   23.2190000   22.8760000  
O 13.6410000   20.1650000   18.1950000  
O 13.6300000   17.8880000   19.7870000  
H 17.6020000   19.4690000   23.3210000  
H 18.0910000   20.9960000   24.5130000  
H 17.2060000   23.0180000   20.9390000  
H 13.0540000   19.4250000   17.9790000  
H 13.7520000   17.0460000   20.2060000  
C 15.3360000   22.4610000   18.8440000  
C 16.4450000   22.7900000   17.9780000  
C 16.5050000   24.0580000   17.4500000  
C 15.5990000   25.1120000   17.7140000  
C 14.5270000   24.7590000   18.5630000  
C 14.3940000   23.4580000   19.1250000  
C 17.6540000   22.0920000   17.7300000  
C 18.4340000   22.9810000   16.9960000  
N 17.7690000   24.2400000   16.8880000  
O 20.1380000   21.3870000   16.6340000  
C 19.7790000   22.7020000   16.5010000  
O 20.5230000   23.5150000   15.9740000  
O 13.5710000   25.6310000   18.9160000  
O 13.3230000   23.2460000   19.9880000  
H 17.8860000   21.0290000   17.8990000  
H 19.5360000   21.0360000   17.2490000  
H 18.1830000   24.9830000   16.3520000  
H 12.9260000   25.2540000   19.4890000  
H 13.3710000   22.2850000   20.2730000  
H 15.6740000   26.0970000   17.2690000  
