76
001 
C 13.8150000   13.1730000   16.5610000  
C 12.6020000   12.5510000   17.0960000  
C 12.0310000   12.9330000   18.2750000  
C 12.5450000   13.9990000   19.0820000  
C 13.7590000   14.6970000   18.6120000  
C 14.3970000   14.2960000   17.4060000  
C 10.9380000   12.4060000   18.9860000  
C 10.8170000   13.1750000   20.1060000  
N 11.8730000   14.0680000   20.2490000  
O  8.8550000   11.9840000   21.0250000  
C  9.7340000   13.0490000   21.1000000  
O  9.6490000   13.8690000   22.0340000  
O 15.5260000   14.8200000   17.0100000  
O 14.3430000   12.8260000   15.5240000  
H 12.3340000   11.6650000   16.4970000  
H 10.1830000   11.6730000   18.7080000  
H  9.1500000   11.3770000   20.3240000  
H 16.1190000   14.0930000   16.5820000  
C 14.3370000   15.7750000   19.4580000  
C 15.3050000   15.4330000   20.3960000  
C 15.6920000   16.3200000   21.3480000  
C 15.4950000   17.6940000   21.2460000  
C 14.4310000   18.0570000   20.3900000  
C 13.8440000   17.1090000   19.5450000  
C 15.8770000   14.1710000   20.8350000  
C 16.5170000   14.3820000   22.0590000  
N 16.5630000   15.7870000   22.2330000  
O 16.9620000   12.0880000   22.4830000  
C 17.0430000   13.3380000   22.9920000  
O 17.5410000   13.5660000   24.0730000  
O 14.0190000   19.3520000   20.3790000  
O 12.8260000   17.4880000   18.7450000  
H 15.7250000   13.2060000   20.2960000  
H 16.4810000   12.1820000   21.6140000  
H 17.0190000   16.2950000   23.0280000  
H 14.7390000   19.8380000   20.7560000  
H 12.6840000   18.5030000   18.9250000  
C 16.1300000   18.6750000   22.1930000  
C 17.3790000   19.2950000   21.9510000  
C 17.8100000   20.3850000   22.6660000  
C 17.1770000   20.8110000   23.8090000  
C 16.0050000   20.1520000   24.1590000  
C 15.4940000   19.0600000   23.4090000  
C 18.3410000   19.1500000   20.9010000  
C 19.4410000   20.0030000   21.2340000  
N 19.0600000   20.8660000   22.2740000  
O 20.8970000   18.9800000   19.7200000  
C 20.7730000   20.0920000   20.5550000  
O 21.6830000   20.8900000   20.7300000  
O 15.3930000   20.4650000   25.3570000  
O 14.2720000   18.5520000   23.7660000  
H 18.3580000   18.3190000   20.2360000  
H 20.1210000   18.4000000   19.8940000  
H 19.5970000   21.6780000   22.6580000  
H 14.5080000   20.0350000   25.3230000  
H 13.9870000   18.0000000   23.0210000  
C 17.6830000   21.9420000   24.6590000  
C 17.7190000   23.2590000   24.0930000  
C 18.1310000   24.3780000   24.7940000  
C 18.4980000   24.2630000   26.1510000  
C 18.4370000   22.9950000   26.7610000  
C 17.9820000   21.8150000   26.0190000  
C 17.2650000   23.7290000   22.8000000  
C 17.3480000   25.1040000   22.8060000  
N 17.9000000   25.5110000   24.0320000  
O 16.5190000   25.4780000   20.5870000  
C 16.9150000   26.0750000   21.7330000  
O 17.0120000   27.2770000   21.7840000  
O 18.8290000   22.8550000   28.0640000  
O 17.9760000   20.5580000   26.5710000  
H 16.7460000   23.1670000   21.9710000  
H 16.5170000   24.5590000   20.8400000  
H 17.9710000   26.4250000   24.4270000  
H 19.0190000   21.8990000   28.2950000  
H 17.6520000   19.9610000   25.8600000  
H 18.8330000   25.0120000   26.7790000  
