76
001 
C 13.4990000   11.1610000   20.2900000  
C 13.2790000   11.2280000   18.8150000  
C 13.3220000   12.4380000   18.1750000  
C 13.7390000   13.5760000   18.7220000  
C 14.1600000   13.5920000   20.1130000  
C 14.0000000   12.4670000   20.9030000  
C 13.0960000   12.6350000   16.8030000  
C 13.3730000   13.9730000   16.6350000  
N 13.8170000   14.5290000   17.7940000  
O 13.1840000   13.9040000   14.3110000  
C 13.3460000   14.7050000   15.3540000  
O 13.5420000   15.8810000   15.2890000  
O 14.2190000   12.3470000   22.2290000  
O 13.3970000   10.1000000   20.8420000  
H 13.0170000   10.2670000   18.3430000  
H 12.7860000   11.8830000   16.1070000  
H 13.0580000   13.0750000   14.7430000  
H 13.9220000   13.1810000   22.6210000  
C 14.6220000   14.7930000   20.6910000  
C 13.7820000   15.5680000   21.5720000  
C 14.1830000   16.7530000   22.0630000  
C 15.3400000   17.4170000   21.7050000  
C 16.1540000   16.6800000   20.7660000  
C 15.8550000   15.3590000   20.3340000  
C 12.5580000   15.1780000   22.2510000  
C 12.3030000   16.1450000   23.1880000  
N 13.2370000   17.1870000   22.9900000  
O 10.3340000   15.0680000   23.9890000  
C 11.1420000   16.1810000   24.1630000  
O 10.9010000   17.0710000   24.9660000  
O 17.3250000   17.1890000   20.3500000  
O 16.7400000   14.7230000   19.4950000  
H 11.9540000   14.2650000   22.0960000  
H 10.8170000   14.4860000   23.3890000  
H 13.2780000   18.0410000   23.5490000  
H 17.3260000   18.1490000   20.6970000  
H 17.3580000   15.3020000   19.1040000  
C 15.6650000   18.8130000   22.0870000  
C 16.9110000   19.0440000   22.7610000  
C 17.1610000   20.2640000   23.3110000  
C 16.3760000   21.4510000   23.0760000  
C 15.1030000   21.2340000   22.4620000  
C 14.7680000   19.9280000   22.0260000  
C 18.1370000   18.2390000   23.0190000  
C 19.0310000   19.0360000   23.6580000  
N 18.3930000   20.2780000   23.8160000  
O 20.6070000   17.3450000   24.5050000  
C 20.3210000   18.6870000   24.3260000  
O 20.9770000   19.5680000   24.7930000  
O 14.1960000   22.2280000   22.3670000  
O 13.6050000   19.7140000   21.3390000  
H 18.1750000   17.1370000   22.7610000  
H 19.8970000   16.7560000   24.0760000  
H 18.7580000   21.2080000   24.1660000  
H 13.3720000   21.8370000   22.0780000  
H 13.6620000   18.7840000   20.9770000  
C 16.8530000   22.8480000   23.4730000  
C 18.1370000   23.3200000   23.1070000  
C 18.6340000   24.5160000   23.6010000  
C 17.8730000   25.3740000   24.3970000  
C 16.6510000   24.9490000   24.8710000  
C 16.1600000   23.6660000   24.4510000  
C 19.1380000   22.8900000   22.1220000  
C 20.1530000   23.9050000   22.0950000  
N 19.8420000   24.9280000   22.9750000  
O 21.3940000   22.7750000   20.4190000  
C 21.3700000   23.9130000   21.3050000  
O 22.1990000   24.8020000   21.4270000  
O 16.0600000   25.7660000   25.8100000  
O 14.9770000   23.1970000   24.9540000  
H 19.1660000   22.0030000   21.4560000  
H 20.6740000   22.2200000   20.7180000  
H 20.3940000   25.7370000   23.1040000  
H 15.4000000   25.1880000   26.2230000  
H 14.6630000   22.4620000   24.4070000  
H 18.1140000   26.3710000   24.6080000  
