76
001 
C 11.7420000   24.1110000   20.7470000  
C 10.4600000   23.8440000   20.0560000  
C 10.1670000   22.5210000   19.7700000  
C 11.0170000   21.4360000   20.0450000  
C 12.1970000   21.7070000   20.8070000  
C 12.5220000   22.9740000   21.1750000  
C  9.0560000   22.0370000   18.9790000  
C  9.3680000   20.6910000   18.8870000  
N 10.4730000   20.3000000   19.6160000  
O  7.4540000   20.2560000   17.4570000  
C  8.4130000   19.6670000   18.1890000  
O  8.5000000   18.4780000   18.4060000  
O 13.6060000   23.3280000   22.0020000  
O 12.0760000   25.2500000   20.9380000  
H  9.8150000   24.7180000   19.8500000  
H  8.2090000   22.5420000   18.6230000  
H  7.7360000   21.1950000   17.5860000  
H 14.0790000   22.5640000   22.3460000  
C 13.0250000   20.5790000   21.1800000  
C 13.8200000   19.8990000   20.2130000  
C 14.6430000   18.8880000   20.5590000  
C 14.8790000   18.4030000   21.8400000  
C 13.9960000   19.0200000   22.8240000  
C 13.0740000   20.0750000   22.4930000  
C 13.9450000   20.1370000   18.8840000  
C 14.8270000   19.2150000   18.3970000  
N 15.2670000   18.4420000   19.4480000  
O 14.5260000   19.9430000   16.0740000  
C 15.2460000   19.1310000   16.9780000  
O 16.1330000   18.4400000   16.6130000  
O 14.0150000   18.4980000   24.0930000  
O 12.2800000   20.6180000   23.4780000  
H 13.4080000   20.8470000   18.3010000  
H 13.8200000   20.5230000   16.4750000  
H 16.0010000   17.6970000   19.3930000  
H 14.6950000   17.8060000   24.0280000  
H 12.3010000   19.9820000   24.2350000  
C 15.9250000   17.4000000   22.2070000  
C 17.3050000   17.7190000   22.0180000  
C 18.2950000   16.8450000   22.3550000  
C 18.0100000   15.5430000   22.7750000  
C 16.6270000   15.1520000   22.7790000  
C 15.5780000   16.0410000   22.4830000  
C 17.9910000   18.9820000   21.6140000  
C 19.3510000   18.7330000   21.8280000  
N 19.5500000   17.4440000   22.3090000  
O 20.0050000   20.7670000   20.9160000  
C 20.4300000   19.7230000   21.5920000  
O 21.6050000   19.6040000   21.9580000  
O 16.3050000   13.9000000   23.1730000  
O 14.2440000   15.5910000   22.4170000  
H 17.5600000   19.8780000   21.1420000  
H 19.0460000   20.6120000   20.7570000  
H 20.4400000   16.9960000   22.4950000  
H 15.3600000   13.7560000   22.9960000  
H 13.8090000   16.3050000   21.8520000  
C 19.1070000   14.5780000   23.1110000  
C 19.9950000   14.7970000   24.1640000  
C 20.9350000   13.8760000   24.5170000  
C 21.1830000   12.7280000   23.7910000  
C 20.2880000   12.4770000   22.7230000  
C 19.3080000   13.4100000   22.2990000  
C 20.0040000   15.8170000   25.1400000  
C 21.0510000   15.4680000   25.9160000  
N 21.5690000   14.2390000   25.5750000  
O 20.7310000   17.2190000   27.5750000  
C 21.4380000   16.1130000   27.2510000  
O 22.3970000   15.7470000   27.9550000  
O 20.4740000   11.2980000   21.9980000  
O 18.5500000   13.0920000   21.1870000  
H 19.3010000   16.5960000   25.3380000  
H 20.1240000   17.2330000   26.8010000  
H 22.2980000   13.7090000   26.0000000  
H 19.8620000   11.2790000   21.2810000  
H 17.8590000   13.7630000   21.1030000  
H 21.8720000   11.9850000   24.1500000  
