76
001 
C 11.6240000   24.0550000   24.1770000  
C 10.4160000   24.0540000   23.3090000  
C 10.3480000   23.0320000   22.3830000  
C 11.2470000   22.0030000   22.1740000  
C 12.4780000   21.9560000   22.9770000  
C 12.6800000   22.9980000   23.9170000  
C  9.2470000   22.7350000   21.5260000  
C  9.6210000   21.5910000   20.8600000  
N 10.8210000   21.1300000   21.2490000  
O  7.6480000   21.6520000   19.4300000  
C  8.7430000   20.9500000   19.7960000  
O  8.9860000   19.8610000   19.2690000  
O 13.7910000   23.0210000   24.6850000  
O 11.6870000   24.8850000   25.0650000  
H  9.6680000   24.7910000   23.4750000  
H  8.3750000   23.2860000   21.3780000  
H  7.8170000   22.5020000   19.8400000  
H 14.1240000   22.1080000   24.6800000  
C 13.3940000   20.8540000   22.7960000  
C 14.1350000   20.8680000   21.6300000  
C 15.0420000   19.9020000   21.4150000  
C 15.2100000   18.7830000   22.2690000  
C 14.4460000   18.6970000   23.4470000  
C 13.5440000   19.7700000   23.6750000  
C 14.3410000   21.8060000   20.5380000  
C 15.2830000   21.3040000   19.6590000  
N 15.7190000   20.0780000   20.2620000  
O 15.0450000   22.9890000   18.0300000  
C 15.8130000   21.9300000   18.4230000  
O 16.7710000   21.5900000   17.8670000  
O 14.5670000   17.7080000   24.4060000  
O 12.8120000   19.8120000   24.8840000  
H 13.8110000   22.8030000   20.2950000  
H 14.2100000   22.9360000   18.5480000  
H 16.5610000   19.6840000   19.9750000  
H 15.0560000   16.9810000   23.9110000  
H 13.0530000   19.1220000   25.4570000  
C 16.3210000   17.8160000   21.9030000  
C 17.5010000   17.6870000   22.6650000  
C 18.4700000   16.8100000   22.1880000  
C 18.4030000   15.8820000   21.1790000  
C 17.1610000   15.9480000   20.4870000  
C 16.1390000   16.8750000   20.8430000  
C 18.1610000   18.4670000   23.7400000  
C 19.4400000   17.9350000   23.9020000  
N 19.6490000   16.9900000   22.9280000  
O 20.2900000   19.5080000   25.5600000  
C 20.5230000   18.3760000   24.8200000  
O 21.5920000   17.7990000   24.8560000  
O 16.9050000   15.0910000   19.5140000  
O 14.8890000   16.7310000   20.2380000  
H 17.7440000   19.4010000   24.1580000  
H 19.3470000   19.5810000   25.4080000  
H 20.4990000   16.4690000   22.7290000  
H 16.1820000   15.4690000   18.9920000  
H 14.5490000   17.6370000   20.3700000  
C 19.4660000   14.9160000   20.7580000  
C 19.2510000   13.5170000   20.9570000  
C 20.2370000   12.6120000   20.6120000  
C 21.4330000   12.9710000   20.0080000  
C 21.5780000   14.3210000   19.7390000  
C 20.6770000   15.3130000   20.1690000  
C 18.0890000   12.7840000   21.4910000  
C 18.4070000   11.4200000   21.3400000  
N 19.7660000   11.3340000   20.8300000  
O 16.2830000   10.4630000   22.0210000  
C 17.4710000   10.2290000   21.4640000  
O 17.8410000    9.1160000   21.1030000  
O 22.6960000   14.7450000   19.1170000  
O 20.9270000   16.5800000   19.7980000  
H 17.2280000   13.2290000   21.9260000  
H 16.1550000   11.4230000   22.2460000  
H 20.1770000   10.3970000   20.5080000  
H 22.5350000   15.6850000   19.0370000  
H 20.2300000   17.1840000   20.1260000  
H 22.1560000   12.2250000   19.7610000  
