76
001 
C  9.7680000   22.1210000   23.0630000  
C 10.1210000   23.2520000   23.9400000  
C 11.4360000   23.5170000   24.1680000  
C 12.4450000   22.7270000   23.7810000  
C 12.1860000   21.4550000   23.1110000  
C 10.8900000   21.1630000   22.7460000  
C 11.9470000   24.6240000   24.8720000  
C 13.2810000   24.3890000   24.8950000  
N 13.5760000   23.2040000   24.2420000  
O 13.7590000   26.3890000   26.1900000  
C 14.3000000   25.2340000   25.6470000  
O 15.4640000   25.0550000   25.7030000  
O 10.4000000   20.0920000   22.0210000  
O  8.6340000   21.9720000   22.7410000  
H  9.3380000   23.9470000   24.1960000  
H 11.3940000   25.3590000   25.4190000  
H 12.7950000   26.2880000   26.0150000  
H  9.4520000   20.2230000   21.7380000  
C 13.3130000   20.7000000   22.6400000  
C 13.6100000   19.4740000   23.2480000  
C 14.6080000   18.6620000   22.7750000  
C 15.4900000   18.9440000   21.7270000  
C 15.1600000   20.2040000   21.0770000  
C 14.1440000   21.1150000   21.5760000  
C 13.0070000   18.8840000   24.4340000  
C 13.7460000   17.7150000   24.6060000  
N 14.6330000   17.5170000   23.5410000  
O 12.9030000   17.0160000   26.6860000  
C 13.6770000   16.7180000   25.6600000  
O 14.2240000   15.6450000   25.5090000  
O 16.0400000   20.6740000   20.1500000  
O 13.9600000   22.2910000   20.9260000  
H 12.1200000   19.1270000   25.0400000  
H 12.7110000   17.9590000   26.4890000  
H 15.2010000   16.7090000   23.4430000  
H 16.9450000   20.3090000   20.3850000  
H 13.5520000   22.8880000   21.5760000  
C 16.4910000   17.9310000   21.3050000  
C 15.9990000   16.7240000   20.7720000  
C 16.8540000   15.8180000   20.3970000  
C 18.2600000   15.8810000   20.6910000  
C 18.7470000   17.1290000   21.1470000  
C 17.8590000   18.1530000   21.4470000  
C 14.6620000   16.1930000   20.6260000  
C 14.8630000   14.9020000   20.1850000  
N 16.2340000   14.7240000   19.8650000  
O 12.6180000   14.2870000   20.0280000  
C 13.8790000   13.9380000   19.8440000  
O 14.0870000   12.8100000   19.4040000  
O 20.0610000   17.4170000   21.2970000  
O 18.2850000   19.3570000   21.8740000  
H 13.6780000   16.6240000   20.8540000  
H 12.5850000   15.2440000   20.3010000  
H 16.5800000   14.0100000   19.2280000  
H 20.1570000   18.4040000   21.3740000  
H 17.5560000   19.8620000   22.3230000  
C 19.1660000   14.7650000   20.1540000  
C 20.0160000   15.1300000   19.0740000  
C 20.7870000   14.1360000   18.5520000  
C 20.9360000   12.8400000   19.0370000  
C 20.1760000   12.4950000   20.1980000  
C 19.3170000   13.4250000   20.7480000  
C 20.2660000   16.3480000   18.3180000  
C 21.3520000   16.0540000   17.4610000  
N 21.5730000   14.6180000   17.4610000  
O 21.7530000   18.2350000   16.7340000  
C 22.1560000   16.9610000   16.7730000  
O 23.1590000   16.5780000   16.2120000  
O 20.1360000   11.1800000   20.6520000  
O 18.4670000   13.1120000   21.7600000  
H 19.8650000   17.3150000   18.4860000  
H 20.8480000   18.2940000   16.9950000  
H 22.2930000   14.0630000   16.9390000  
H 19.6630000   11.2070000   21.5120000  
H 18.0750000   13.9370000   22.1280000  
H 21.4930000   12.1740000   18.4510000  
