76
001 
C 17.3410000   14.2300000   28.0380000  
C 15.9960000   13.9060000   28.4820000  
C 14.8920000   14.2280000   27.7350000  
C 14.9560000   14.9100000   26.5430000  
C 16.2390000   15.2540000   25.9690000  
C 17.4160000   14.9190000   26.6730000  
C 13.5430000   14.0430000   28.0370000  
C 12.8220000   14.7290000   27.0990000  
N 13.7370000   15.2910000   26.1190000  
O 10.7060000   14.3350000   28.0630000  
C 11.3580000   14.8130000   27.0290000  
O 10.7950000   15.3170000   26.0990000  
O 18.6580000   15.1830000   26.0850000  
O 18.3340000   14.1600000   28.7460000  
H 15.9180000   13.5160000   29.4650000  
H 13.1260000   13.3780000   28.7610000  
H 11.4210000   14.1340000   28.7450000  
H 19.3350000   15.0490000   26.6930000  
C 16.3280000   15.8630000   24.6100000  
C 15.8490000   17.2030000   24.5150000  
C 15.7590000   17.8080000   23.3180000  
C 16.1180000   17.2790000   22.0730000  
C 16.7050000   15.9750000   22.1880000  
C 16.8570000   15.3300000   23.4600000  
C 15.3100000   18.1220000   25.5340000  
C 15.0150000   19.3270000   24.8420000  
N 15.2840000   19.1150000   23.4850000  
O 14.4130000   20.4890000   26.8170000  
C 14.5350000   20.6050000   25.4840000  
O 14.1980000   21.5900000   24.9470000  
O 17.1600000   15.3720000   21.0250000  
O 17.3140000   14.0470000   23.5830000  
H 15.3330000   17.9880000   26.5430000  
H 14.7500000   19.6680000   27.0060000  
H 15.0470000   19.8850000   22.8270000  
H 17.2530000   16.0650000   20.3320000  
H 17.2620000   13.7240000   24.4950000  
C 16.0280000   18.0550000   20.8460000  
C 16.7970000   19.2610000   20.6710000  
C 16.5990000   20.0240000   19.5880000  
C 15.7090000   19.6780000   18.5230000  
C 14.9440000   18.4950000   18.6680000  
C 15.0410000   17.7550000   19.8610000  
C 17.7470000   19.9260000   21.5270000  
C 18.0210000   21.1220000   20.8670000  
N 17.2940000   21.2230000   19.6940000  
O 19.8700000   21.8730000   22.3490000  
C 19.1030000   22.0990000   21.2220000  
O 19.3280000   23.0720000   20.5520000  
O 14.0810000   18.1210000   17.6330000  
O 14.3450000   16.5420000   19.9900000  
H 18.2510000   19.5840000   22.4150000  
H 19.6070000   21.0840000   22.8370000  
H 17.4610000   21.9040000   19.0540000  
H 13.5260000   17.3010000   17.8620000  
H 14.5630000   16.1530000   20.8160000  
C 15.4890000   20.6240000   17.3940000  
C 16.1800000   20.5020000   16.1810000  
C 15.8300000   21.2750000   15.1590000  
C 14.8160000   22.2520000   15.1800000  
C 14.1700000   22.4040000   16.3870000  
C 14.5700000   21.6980000   17.5320000  
C 17.0020000   19.4110000   15.6430000  
C 17.1350000   19.6390000   14.2720000  
N 16.5030000   20.8440000   14.0330000  
O 18.3630000   17.7320000   13.5420000  
C 17.8990000   18.9170000   13.1850000  
O 18.0200000   19.2370000   12.0220000  
O 13.3290000   23.4950000   16.5660000  
O 13.9150000   21.9340000   18.7050000  
H 17.5110000   18.6090000   16.1800000  
H 17.9130000   17.5950000   14.3950000  
H 16.3780000   21.2430000   13.0830000  
H 13.0740000   23.4840000   17.5530000  
H 14.2600000   21.2860000   19.3390000  
H 14.5340000   22.8370000   14.2890000  
