76
001 
C 11.3890000   20.1540000   27.3000000  
C 12.1510000   20.4990000   28.5280000  
C 13.5500000   20.4140000   28.4400000  
C 14.2480000   20.0230000   27.2640000  
C 13.5470000   19.7350000   26.0530000  
C 12.1650000   19.8180000   26.0740000  
C 14.5990000   20.7160000   29.3310000  
C 15.7510000   20.3690000   28.7120000  
N 15.5920000   19.9780000   27.3570000  
O 17.1420000   20.9830000   30.6170000  
C 17.0950000   20.5030000   29.3050000  
O 18.0990000   20.2340000   28.6650000  
O 11.4090000   19.4800000   25.0260000  
O 10.1860000   20.0700000   27.3890000  
H 11.6900000   20.8120000   29.4740000  
H 14.5080000   21.0950000   30.3780000  
H 16.3150000   21.4200000   30.8010000  
H 10.4580000   19.8670000   25.2240000  
C 14.1430000   19.3470000   24.7500000  
C 14.8510000   18.1560000   24.5890000  
C 15.4820000   17.8630000   23.3940000  
C 15.6100000   18.6830000   22.2950000  
C 14.9960000   19.9650000   22.5020000  
C 14.2430000   20.2370000   23.6220000  
C 15.2960000   17.1370000   25.5550000  
C 16.2420000   16.3940000   24.8770000  
N 16.3640000   16.7990000   23.5160000  
O 16.6110000   14.8050000   26.7130000  
C 16.9630000   15.2470000   25.4490000  
O 17.7930000   14.6640000   24.7930000  
O 15.0600000   20.8820000   21.4600000  
O 13.5100000   21.4530000   23.5720000  
H 14.9130000   17.0280000   26.6170000  
H 15.8580000   15.3390000   26.9900000  
H 16.7200000   16.3300000   22.6950000  
H 15.3060000   20.2830000   20.7200000  
H 13.7080000   21.9790000   22.7530000  
C 16.2750000   18.3470000   21.0590000  
C 15.7130000   17.3390000   20.1720000  
C 16.3550000   16.9820000   19.0060000  
C 17.5410000   17.5480000   18.5330000  
C 18.0820000   18.5450000   19.3370000  
C 17.5130000   18.9670000   20.6070000  
C 14.5180000   16.5020000   20.2860000  
C 14.5500000   15.6830000   19.1260000  
N 15.6710000   16.0160000   18.3350000  
O 12.3550000   14.8800000   19.4670000  
C 13.4460000   14.7840000   18.6940000  
O 13.4710000   14.1200000   17.7070000  
O 19.2980000   19.1590000   19.1020000  
O 18.2730000   19.7430000   21.4830000  
H 13.8710000   16.3650000   21.1620000  
H 12.5250000   15.6420000   20.0120000  
H 15.9370000   15.5300000   17.4760000  
H 19.4430000   19.8080000   19.8540000  
H 17.7940000   19.8810000   22.3100000  
C 18.0560000   17.1450000   17.1820000  
C 17.6780000   17.8940000   16.0330000  
C 18.0110000   17.4920000   14.7730000  
C 18.8020000   16.3350000   14.6090000  
C 19.2640000   15.5550000   15.6920000  
C 18.9090000   16.0070000   16.9640000  
C 16.8490000   19.0300000   15.9640000  
C 16.7020000   19.2590000   14.5490000  
N 17.4800000   18.3320000   13.8350000  
O 15.0180000   21.0350000   14.6840000  
C 15.8150000   20.2420000   13.8620000  
O 15.9050000   20.3610000   12.6730000  
O 20.0860000   14.4510000   15.6300000  
O 19.4160000   15.3470000   18.0260000  
H 16.4030000   19.6450000   16.6920000  
H 15.2340000   20.8220000   15.6210000  
H 17.7250000   18.4710000   12.8870000  
H 20.0670000   13.8700000   16.4190000  
H 18.8240000   15.5940000   18.7360000  
H 18.9750000   16.0430000   13.5540000  
