76
001 
C 13.1650000   13.5670000   16.3700000  
C 11.6900000   13.9420000   16.2130000  
C 11.3840000   15.1480000   16.8110000  
C 12.2040000   15.9780000   17.6280000  
C 13.5980000   15.6430000   17.7170000  
C 14.0810000   14.5290000   17.1520000  
C 10.1790000   15.9330000   16.6880000  
C 10.2540000   17.0170000   17.5890000  
N 11.5880000   17.0320000   18.0750000  
O  7.8760000   17.4630000   17.5060000  
C  9.0940000   17.8650000   17.8950000  
O  9.1120000   18.9030000   18.5350000  
O 15.3570000   14.1720000   17.3650000  
O 13.5800000   12.4760000   15.9600000  
H 11.0050000   13.3890000   15.5720000  
H  9.3720000   15.6010000   16.0780000  
H  8.0680000   16.6580000   16.9850000  
H 15.6950000   14.6490000   18.1800000  
C 14.4100000   16.4530000   18.6520000  
C 14.3420000   16.0620000   19.9660000  
C 14.9120000   16.8170000   20.9230000  
C 15.6750000   17.9550000   20.6750000  
C 15.8820000   18.3090000   19.3260000  
C 15.2680000   17.5530000   18.3280000  
C 13.7040000   14.8940000   20.6140000  
C 13.8190000   15.1300000   21.9890000  
N 14.5510000   16.3340000   22.1600000  
O 12.7560000   13.1670000   22.5860000  
C 13.3320000   14.2920000   23.0590000  
O 13.5740000   14.5010000   24.2580000  
O 16.5490000   19.5000000   18.9080000  
O 15.4250000   17.8840000   16.9800000  
H 13.3250000   14.0240000   20.1560000  
H 12.7220000   13.2550000   21.5990000  
H 15.0760000   16.5790000   22.9840000  
H 16.8260000   20.1320000   19.5900000  
H 15.9740000   18.6170000   16.8990000  
C 16.2030000   18.7970000   21.8350000  
C 17.3630000   18.4650000   22.5250000  
C 17.7880000   19.2410000   23.6050000  
C 17.0670000   20.3340000   24.1850000  
C 15.7660000   20.5040000   23.5530000  
C 15.3350000   19.8010000   22.4230000  
C 18.3540000   17.4350000   22.2980000  
C 19.3770000   17.6060000   23.1730000  
N 19.0630000   18.7270000   23.9890000  
O 20.6930000   15.8520000   22.1690000  
C 20.6540000   16.8840000   23.1050000  
O 21.5830000   17.1200000   23.8120000  
O 14.8150000   21.3920000   24.0460000  
O 14.0740000   20.0090000   21.8450000  
H 18.3220000   16.7320000   21.5060000  
H 19.8600000   15.9500000   21.7420000  
H 19.5730000   19.1000000   24.8400000  
H 14.1630000   21.4150000   23.3400000  
H 13.8470000   19.3590000   21.0990000  
C 17.6160000   21.0710000   25.3810000  
C 18.8920000   21.6650000   25.3090000  
C 19.3760000   22.4070000   26.3820000  
C 18.7160000   22.4400000   27.6270000  
C 17.5460000   21.6950000   27.7350000  
C 16.9330000   21.0970000   26.6230000  
C 19.8720000   21.8700000   24.1960000  
C 20.8680000   22.6780000   24.6530000  
N 20.5440000   23.0400000   25.9560000  
O 22.1020000   22.8150000   22.6430000  
C 22.0220000   23.2370000   23.9040000  
O 22.7560000   24.1140000   24.4230000  
O 16.8960000   21.6000000   28.8600000  
O 15.6600000   20.5340000   26.8130000  
H 19.8270000   21.4770000   23.1690000  
H 21.4080000   22.1600000   22.5640000  
H 20.9910000   23.7340000   26.5370000  
H 16.0400000   21.1550000   28.6140000  
H 15.3150000   20.4390000   25.8940000  
H 18.9410000   23.0750000   28.4610000  
