76
001 
C  9.0120000   21.6570000   20.9620000  
C  8.7520000   21.6690000   19.5010000  
C  9.6030000   20.9420000   18.7360000  
C 10.8140000   20.3620000   19.1890000  
C 11.1440000   20.4040000   20.6340000  
C 10.3200000   21.0540000   21.4800000  
C  9.5450000   20.6100000   17.3510000  
C 10.7080000   19.8680000   17.1220000  
N 11.4950000   19.7510000   18.2450000  
O  9.9380000   19.3300000   14.8870000  
C 10.8600000   19.0390000   15.8760000  
O 11.7510000   18.2080000   15.7320000  
O 10.5420000   21.0770000   22.8370000  
O  8.2080000   22.1700000   21.7320000  
H  7.9070000   22.1770000   19.0900000  
H  8.7360000   20.7930000   16.7320000  
H  9.3040000   19.9960000   15.2920000  
H  9.8610000   21.5830000   23.2590000  
C 12.3770000   19.8170000   21.0720000  
C 13.4220000   20.6580000   21.5380000  
C 14.6550000   20.0840000   21.8350000  
C 15.0030000   18.7040000   21.8780000  
C 13.8820000   17.8720000   21.6110000  
C 12.6020000   18.4270000   21.2300000  
C 13.6420000   22.0450000   21.2930000  
C 14.9880000   22.2310000   21.5870000  
N 15.6160000   21.0800000   21.9910000  
O 14.9590000   24.7280000   21.1730000  
C 15.6340000   23.5960000   21.4840000  
O 16.8370000   23.7420000   21.6590000  
O 14.0590000   16.5120000   21.4830000  
O 11.6960000   17.5570000   20.7470000  
H 12.9620000   22.8200000   20.7970000  
H 14.0290000   24.5170000   21.0860000  
H 16.6060000   20.9760000   22.1560000  
H 14.7480000   16.2420000   22.0740000  
H 11.9580000   16.6640000   21.0610000  
C 16.3440000   18.1370000   22.0940000  
C 16.6440000   17.4480000   23.2700000  
C 17.8640000   16.9080000   23.4510000  
C 18.9760000   17.0140000   22.5640000  
C 18.7260000   17.8290000   21.4260000  
C 17.4140000   18.3560000   21.1820000  
C 15.9210000   17.2630000   24.5570000  
C 16.8170000   16.6080000   25.4100000  
N 17.9310000   16.2630000   24.6900000  
O 15.4380000   16.6170000   27.3750000  
C 16.6760000   16.5100000   26.8610000  
O 17.6020000   16.2400000   27.5740000  
O 19.7300000   18.0850000   20.4780000  
O 17.1360000   19.0350000   19.9790000  
H 15.0880000   17.8620000   24.8540000  
H 15.0400000   16.9340000   26.5820000  
H 18.7610000   15.8000000   25.0060000  
H 19.2220000   18.4630000   19.7240000  
H 16.1700000   19.1220000   19.9460000  
C 20.3600000   16.4880000   22.8800000  
C 20.8290000   15.2030000   22.5090000  
C 21.9250000   14.6230000   23.1120000  
C 22.7360000   15.3230000   24.0500000  
C 22.2600000   16.5790000   24.4220000  
C 21.1020000   17.1500000   23.8900000  
C 20.2160000   14.1830000   21.6540000  
C 21.0710000   13.0730000   21.6400000  
N 22.1000000   13.3280000   22.5620000  
O 20.0250000   11.7890000   19.8730000  
C 20.9740000   11.8610000   20.7860000  
O 21.8370000   11.0210000   20.8890000  
O 23.0560000   17.2610000   25.3050000  
O 20.8410000   18.4300000   24.3650000  
H 19.3420000   14.2700000   20.9230000  
H 19.4530000   12.5680000   20.0700000  
H 22.9030000   12.7770000   22.4640000  
H 22.6580000   18.1960000   25.4090000  
H 19.9190000   18.5810000   24.0030000  
H 23.6810000   14.9930000   24.5060000  
