76
001 
C  8.9920000   20.9860000   20.1360000  
C  8.6080000   20.5530000   18.8200000  
C  9.3840000   19.6800000   18.1330000  
C 10.6450000   19.3100000   18.5840000  
C 11.1140000   19.7220000   19.8650000  
C 10.2800000   20.4860000   20.6450000  
C  9.2380000   19.1310000   16.8780000  
C 10.3980000   18.3940000   16.6820000  
N 11.2620000   18.4450000   17.7820000  
O 10.0330000   17.8390000   14.3720000  
C 10.7990000   17.6350000   15.4170000  
O 11.7290000   16.8960000   15.3500000  
O 10.5560000   20.8270000   21.9240000  
O  8.1610000   21.5310000   20.8100000  
H  7.6630000   20.8670000   18.4030000  
H  8.4600000   19.3770000   16.2260000  
H  9.5580000   18.6530000   14.5970000  
H  9.7650000   21.3830000   22.3200000  
C 12.3780000   19.1760000   20.4070000  
C 13.5550000   19.8770000   20.2240000  
C 14.7140000   19.5060000   20.8670000  
C 14.9310000   18.3160000   21.5230000  
C 13.7110000   17.6460000   21.8290000  
C 12.4520000   18.0370000   21.2640000  
C 13.7970000   21.1700000   19.5360000  
C 15.1750000   21.4270000   19.6130000  
N 15.7640000   20.3130000   20.3560000  
O 15.2130000   23.4670000   18.4970000  
C 15.9510000   22.5230000   19.0600000  
O 17.1410000   22.6660000   19.0770000  
O 13.7010000   16.5900000   22.6880000  
O 11.3330000   17.3530000   21.5290000  
H 13.0080000   21.8640000   19.2150000  
H 14.3410000   23.0380000   18.5010000  
H 16.7910000   20.2480000   20.5710000  
H 14.4790000   16.7580000   23.2920000  
H 11.6140000   16.4230000   21.8690000  
C 16.2750000   17.9010000   22.0270000  
C 16.7080000   18.0660000   23.3650000  
C 18.0210000   17.9150000   23.7460000  
C 18.9750000   17.3840000   22.9300000  
C 18.6470000   17.1580000   21.6000000  
C 17.3640000   17.4710000   21.1520000  
C 16.0120000   18.6260000   24.5640000  
C 17.0250000   18.7140000   25.5550000  
N 18.2300000   18.2100000   25.0340000  
O 15.6510000   19.8970000   27.0530000  
C 16.8640000   19.2920000   26.8770000  
O 17.7330000   19.2770000   27.7120000  
O 19.5690000   16.8710000   20.6750000  
O 17.0590000   17.2780000   19.7740000  
H 15.0010000   18.9770000   24.6530000  
H 15.3140000   19.7940000   26.1750000  
H 19.1420000   18.2220000   25.4930000  
H 19.0720000   16.7400000   19.8230000  
H 16.2760000   17.8230000   19.6730000  
C 20.4370000   17.1830000   23.4350000  
C 20.7570000   15.9060000   23.9900000  
C 22.0310000   15.5980000   24.3560000  
C 23.1110000   16.4800000   24.1870000  
C 22.8340000   17.7790000   23.7620000  
C 21.4870000   18.1280000   23.4150000  
C 19.9670000   14.7330000   24.3720000  
C 20.7850000   13.7940000   24.8790000  
N 22.1030000   14.3420000   24.8520000  
O 19.0970000   12.0870000   25.1010000  
C 20.4430000   12.4040000   25.1950000  
O 21.2370000   11.5660000   25.5080000  
O 23.9430000   18.5890000   23.6450000  
O 21.2190000   19.3240000   22.8250000  
H 18.9530000   14.6610000   24.0790000  
H 18.7680000   12.8920000   24.7330000  
H 22.9550000   13.9760000   25.2170000  
H 23.6270000   19.4050000   23.4470000  
H 20.2720000   19.4150000   22.6730000  
H 24.1250000   16.1720000   24.3170000  
