76
001 
C 11.5290000   20.9400000   27.1320000  
C 10.8260000   22.1570000   26.6210000  
C 11.0910000   22.5810000   25.3130000  
C 12.0080000   21.9280000   24.4350000  
C 12.6700000   20.6890000   24.8370000  
C 12.4370000   20.2160000   26.1320000  
C 10.6970000   23.7350000   24.6220000  
C 11.2810000   23.7110000   23.3920000  
N 12.1070000   22.6060000   23.2600000  
O 10.4320000   25.7820000   22.7960000  
C 11.1450000   24.7070000   22.3370000  
O 11.5700000   24.6770000   21.1820000  
O 13.0690000   19.1320000   26.6490000  
O 11.4300000   20.6280000   28.3150000  
H 10.1800000   22.6520000   27.3520000  
H 10.0080000   24.4960000   25.0070000  
H 10.4900000   25.4820000   23.7170000  
H 13.4230000   18.7590000   25.8710000  
C 13.5700000   20.0490000   23.8960000  
C 14.8920000   20.4010000   23.8320000  
C 15.7850000   19.8470000   22.9740000  
C 15.4990000   18.7710000   22.1000000  
C 14.0720000   18.4040000   22.1130000  
C 13.1470000   19.0930000   22.9340000  
C 15.6290000   21.3230000   24.6990000  
C 16.9340000   21.2970000   24.3020000  
N 17.0490000   20.3850000   23.2480000  
O 18.0140000   22.8800000   25.8480000  
C 18.1370000   22.0390000   24.7630000  
O 19.1530000   21.9060000   24.1260000  
O 13.7220000   17.2890000   21.3440000  
O 11.8370000   18.6710000   22.9830000  
H 15.2000000   21.8110000   25.4870000  
H 17.1830000   22.6000000   26.2280000  
H 17.9070000   20.1180000   22.7620000  
H 14.4550000   16.9760000   20.9070000  
H 11.5780000   18.3690000   22.0520000  
C 16.4060000   17.9850000   21.2520000  
C 16.9890000   16.7160000   21.6060000  
C 17.8010000   16.0900000   20.7620000  
C 18.2510000   16.5260000   19.4710000  
C 17.7600000   17.7800000   19.1000000  
C 16.9260000   18.5530000   20.0560000  
C 16.9220000   15.8140000   22.7640000  
C 17.5820000   14.6210000   22.5140000  
N 18.1750000   14.8300000   21.2800000  
O 17.2630000   13.6430000   24.6760000  
C 17.7760000   13.4130000   23.3750000  
O 18.3450000   12.3850000   23.0070000  
O 18.1860000   18.3100000   17.9000000  
O 16.7510000   19.8940000   19.7690000  
H 16.4340000   16.0190000   23.7560000  
H 16.9400000   14.5310000   24.5430000  
H 18.8430000   14.1770000   20.8400000  
H 17.8570000   19.1730000   17.6970000  
H 16.2530000   20.3370000   20.4800000  
C 18.9570000   15.5540000   18.6580000  
C 18.3410000   14.6960000   17.7000000  
C 19.0810000   13.8800000   16.8870000  
C 20.4670000   13.7460000   17.0730000  
C 21.0830000   14.4860000   18.0580000  
C 20.3990000   15.4270000   18.8190000  
C 16.9700000   14.6920000   17.2420000  
C 16.9030000   13.7350000   16.2520000  
N 18.1930000   13.1630000   16.0450000  
O 14.5780000   13.9200000   15.8080000  
C 15.7180000   13.3300000   15.5100000  
O 15.6910000   12.3670000   14.6910000  
O 22.4150000   14.3280000   18.1440000  
O 21.0880000   16.1560000   19.7280000  
H 16.2110000   15.4840000   17.4390000  
H 14.8350000   14.7080000   16.3480000  
H 18.3280000   12.3060000   15.5430000  
H 22.7090000   14.9500000   18.7900000  
H 20.4790000   16.6980000   20.2270000  
H 21.0790000   13.1580000   16.4060000  
