76
001 
C 13.5290000   17.2540000   28.8790000  
C 14.6860000   16.5650000   29.4380000  
C 15.7340000   16.1420000   28.6900000  
C 15.8220000   16.3610000   27.3590000  
C 14.7540000   17.1030000   26.6990000  
C 13.6320000   17.4860000   27.4190000  
C 16.9890000   15.5600000   29.0460000  
C 17.7080000   15.4230000   27.8870000  
N 16.9450000   15.9440000   26.8410000  
O 19.6480000   14.5360000   28.9650000  
C 19.0710000   14.9080000   27.7890000  
O 19.7310000   14.8920000   26.8070000  
O 12.5510000   18.0420000   26.8760000  
O 12.6290000   17.6870000   29.5600000  
H 14.5630000   16.3240000   30.4390000  
H 17.2920000   15.2430000   30.0100000  
H 19.0450000   14.7590000   29.6600000  
H 11.9390000   18.3480000   27.6490000  
C 15.0180000   17.5180000   25.3110000  
C 14.7590000   16.6650000   24.2120000  
C 15.0750000   17.0090000   22.9190000  
C 15.6500000   18.2480000   22.5360000  
C 15.7950000   19.2230000   23.6100000  
C 15.4670000   18.8340000   24.9440000  
C 14.0190000   15.4780000   24.2110000  
C 13.8570000   15.2030000   22.8590000  
N 14.4970000   16.0810000   22.0650000  
O 12.6340000   13.1100000   23.2710000  
C 13.1600000   13.9570000   22.3350000  
O 12.9980000   13.7590000   21.1380000  
O 16.3660000   20.4450000   23.2670000  
O 15.7860000   19.6840000   25.9770000  
H 13.4520000   15.0190000   24.9860000  
H 13.1290000   13.4680000   24.0300000  
H 14.4810000   16.1340000   21.0410000  
H 16.1950000   20.6570000   22.3270000  
H 16.2300000   20.4820000   25.5250000  
C 15.8820000   18.4310000   21.1110000  
C 15.1100000   19.3920000   20.4770000  
C 15.2330000   19.6270000   19.1470000  
C 16.1690000   18.9830000   18.2660000  
C 16.8260000   17.8090000   18.8860000  
C 16.7540000   17.5830000   20.3320000  
C 13.9990000   20.2300000   20.8560000  
C 13.5760000   20.8700000   19.6920000  
N 14.3290000   20.4970000   18.6240000  
O 11.9720000   22.3580000   20.8350000  
C 12.5600000   21.9380000   19.6830000  
O 12.2990000   22.4840000   18.6440000  
O 17.7810000   17.0250000   18.1470000  
O 17.6010000   16.7510000   20.9470000  
H 13.5510000   20.3450000   21.8710000  
H 12.5880000   22.1990000   21.5860000  
H 14.3700000   20.9980000   17.7220000  
H 18.1120000   16.3540000   18.7480000  
H 17.4100000   16.8490000   21.9000000  
C 16.3660000   19.2990000   16.7860000  
C 17.4050000   20.1000000   16.2900000  
C 17.4230000   20.4350000   14.9130000  
C 16.5510000   19.8770000   13.9740000  
C 15.5050000   19.0710000   14.4950000  
C 15.4440000   18.7710000   15.8560000  
C 18.5530000   20.7020000   16.9090000  
C 19.2430000   21.4330000   15.9450000  
N 18.4820000   21.2440000   14.6660000  
O 21.1830000   21.8600000   17.0960000  
C 20.5530000   22.0660000   15.9880000  
O 21.0340000   22.7650000   15.1790000  
O 14.6660000   18.5000000   13.6370000  
O 14.4370000   17.9150000   16.4060000  
H 18.7230000   20.6410000   17.9170000  
H 20.5030000   21.3320000   17.5710000  
H 18.7930000   21.6050000   13.7790000  
H 14.0340000   17.9370000   14.1980000  
H 14.5100000   17.9630000   17.3540000  
H 16.5800000   20.1820000   12.9320000  
