76
001 
C 15.7210000   15.2490000   28.7000000  
C 15.7520000   13.7880000   28.5000000  
C 15.8840000   13.2940000   27.1910000  
C 16.0890000   14.1220000   26.1020000  
C 15.9130000   15.5410000   26.1840000  
C 15.9080000   16.0740000   27.4510000  
C 15.9580000   11.9410000   26.7560000  
C 16.2250000   12.0500000   25.3930000  
N 16.2700000   13.3700000   24.9820000  
O 16.4230000    9.8170000   24.9010000  
C 16.2910000   10.9920000   24.3700000  
O 16.4170000   11.1840000   23.2000000  
O 16.0050000   17.3910000   27.6840000  
O 15.6200000   15.7170000   29.8210000  
H 15.5370000   13.1800000   29.4180000  
H 15.8660000   11.0830000   27.3880000  
H 16.1770000    9.9850000   25.8360000  
H 16.1340000   17.4230000   28.6860000  
C 15.9390000   16.3060000   24.9380000  
C 14.7900000   16.7510000   24.2910000  
C 14.8520000   17.3980000   23.0680000  
C 16.0310000   17.6840000   22.4450000  
C 17.2070000   17.4370000   23.1640000  
C 17.1790000   16.7310000   24.3760000  
C 13.3490000   16.6680000   24.5950000  
C 12.6760000   17.2790000   23.5300000  
N 13.6030000   17.7070000   22.5470000  
O 10.4580000   16.6930000   24.0890000  
C 11.2560000   17.4250000   23.3270000  
O 10.7980000   18.1450000   22.4720000  
O 18.4200000   17.7160000   22.5640000  
O 18.3500000   16.5740000   25.1120000  
H 12.9280000   16.2930000   25.5500000  
H 11.0050000   16.0300000   24.5510000  
H 13.4160000   18.0750000   21.6290000  
H 18.2850000   17.9600000   21.5830000  
H 19.1060000   16.5210000   24.5380000  
C 16.1220000   18.3280000   21.1020000  
C 15.8220000   19.7040000   20.9580000  
C 15.8440000   20.2410000   19.7360000  
C 16.1230000   19.6200000   18.4870000  
C 16.2810000   18.2310000   18.6250000  
C 16.3030000   17.5910000   19.8540000  
C 15.5130000   20.8330000   21.8380000  
C 15.1950000   21.9380000   21.0480000  
N 15.4930000   21.5750000   19.7430000  
O 14.3250000   23.5310000   22.7860000  
C 14.5730000   23.2190000   21.4810000  
O 14.2270000   24.1080000   20.7390000  
O 16.5070000   17.5510000   17.4490000  
O 16.4590000   16.2290000   19.8300000  
H 15.4690000   20.7650000   23.0260000  
H 14.9490000   22.9850000   23.3500000  
H 15.2790000   22.0520000   18.8470000  
H 16.7550000   16.6310000   17.6450000  
H 16.5640000   15.9510000   20.7570000  
C 16.0650000   20.3580000   17.1820000  
C 16.9020000   21.4430000   16.8690000  
C 16.6760000   22.3180000   15.8550000  
C 15.6400000   22.0870000   14.9460000  
C 14.7120000   20.9980000   15.2090000  
C 14.9290000   20.1260000   16.3110000  
C 18.1300000   21.9170000   17.4770000  
C 18.5630000   23.0790000   16.8360000  
N 17.6620000   23.2460000   15.7810000  
O 20.5140000   23.1300000   18.1360000  
C 19.8270000   23.7480000   17.1450000  
O 20.3390000   24.6570000   16.5860000  
O 13.5060000   20.8570000   14.4810000  
O 14.1410000   19.1090000   16.4980000  
H 18.5980000   21.4920000   18.3030000  
H 20.1530000   22.2430000   18.2230000  
H 17.7810000   24.0000000   15.0430000  
H 13.0820000   20.1010000   14.9890000  
H 14.5510000   18.5670000   17.1640000  
H 15.5790000   22.6830000   14.0450000  
