76
001 
C  8.6560000   20.4790000   21.1110000  
C  8.5010000   20.6260000   19.5890000  
C  9.4720000   20.0920000   18.7300000  
C 10.7960000   19.7520000   19.1740000  
C 11.0830000   19.7990000   20.5880000  
C 10.0830000   20.1080000   21.4770000  
C  9.5360000   20.1060000   17.3340000  
C 10.8090000   19.6850000   17.0280000  
N 11.5920000   19.4410000   18.1790000  
O 10.5400000   19.9480000   14.6820000  
C 11.4250000   19.7380000   15.7400000  
O 12.6140000   19.5620000   15.5650000  
O 10.2560000   20.2200000   22.8130000  
O  7.8130000   20.8610000   21.9020000  
H  7.6460000   21.0740000   19.0980000  
H  8.7150000   20.3980000   16.6780000  
H  9.6640000   20.0350000   15.0850000  
H  9.3920000   20.2500000   23.1740000  
C 12.3600000   19.3140000   20.9700000  
C 13.4330000   20.1210000   20.7550000  
C 14.7180000   19.7360000   21.1190000  
C 14.9990000   18.4320000   21.6000000  
C 13.8960000   17.5640000   21.8220000  
C 12.6050000   18.0510000   21.6330000  
C 13.6570000   21.2820000   19.9300000  
C 15.0140000   21.4920000   19.8260000  
N 15.6980000   20.5660000   20.6270000  
O 14.9250000   23.1510000   18.1380000  
C 15.6780000   22.4150000   18.9570000  
O 16.8980000   22.5830000   18.8640000  
O 13.9880000   16.3430000   22.3930000  
O 11.5230000   17.2130000   21.7330000  
H 12.9190000   21.7830000   19.2180000  
H 14.0490000   23.0150000   18.5020000  
H 16.6780000   20.3180000   20.7350000  
H 14.9310000   16.1730000   22.4990000  
H 11.8970000   16.3710000   22.1490000  
C 16.3840000   18.0890000   21.9950000  
C 16.6750000   17.9560000   23.3850000  
C 17.9550000   17.5830000   23.7850000  
C 18.9820000   17.2500000   22.8890000  
C 18.6970000   17.3980000   21.5100000  
C 17.4170000   17.8290000   21.0700000  
C 15.9950000   18.2960000   24.6070000  
C 16.9040000   18.1760000   25.6540000  
N 18.0830000   17.5720000   25.1820000  
O 15.6140000   19.5730000   27.1720000  
C 16.6940000   18.7480000   27.0480000  
O 17.4310000   18.5540000   28.0190000  
O 19.7030000   17.2330000   20.5820000  
O 17.1840000   17.9700000   19.7510000  
H 15.0310000   18.6610000   24.6930000  
H 15.1100000   19.7560000   26.4080000  
H 18.9070000   17.3980000   25.7780000  
H 19.3350000   17.2810000   19.6880000  
H 16.3380000   18.3340000   19.6010000  
C 20.3320000   16.7820000   23.3400000  
C 20.8480000   15.4900000   23.0990000  
C 21.9880000   15.0100000   23.7360000  
C 22.8140000   15.8320000   24.4790000  
C 22.4760000   17.1470000   24.5590000  
C 21.2620000   17.6080000   24.0170000  
C 20.1090000   14.3670000   22.6400000  
C 20.8270000   13.2440000   22.9970000  
N 21.9640000   13.6300000   23.7330000  
O 19.5580000   11.6290000   21.6290000  
C 20.6280000   11.8730000   22.4830000  
O 21.3620000   10.9490000   22.8240000  
O 23.2110000   18.0410000   25.3310000  
O 20.9510000   18.9510000   24.0980000  
H 19.1950000   14.3050000   22.0720000  
H 19.1530000   12.4890000   21.4400000  
H 22.7230000   13.0970000   23.9970000  
H 22.7520000   18.8320000   25.3940000  
H 20.1840000   19.0560000   23.4800000  
H 23.6880000   15.5230000   25.0020000  
