76
001 
C 11.2670000   24.1730000   22.5900000  
C 10.0680000   23.8350000   21.7900000  
C  9.9010000   22.6920000   21.1480000  
C 10.8820000   21.6590000   21.1610000  
C 12.1500000   21.9780000   21.7860000  
C 12.3700000   23.1510000   22.5360000  
C  8.8340000   22.1810000   20.3760000  
C  9.2170000   20.9400000   20.0180000  
N 10.5550000   20.6640000   20.3880000  
O  7.1280000   20.4470000   18.9520000  
C  8.4370000   20.0270000   19.2380000  
O  8.8580000   18.9610000   18.7960000  
O 13.4690000   23.3440000   23.2170000  
O 11.3880000   25.0850000   23.3590000  
H  9.2840000   24.5240000   21.9310000  
H  7.9350000   22.7080000   20.1910000  
H  7.1390000   21.2460000   19.5060000  
H 13.9370000   22.5330000   23.0200000  
C 13.2240000   20.9190000   21.8100000  
C 14.2140000   20.7970000   20.8180000  
C 15.0970000   19.7810000   20.9350000  
C 15.2060000   18.8330000   21.9360000  
C 14.2090000   18.9720000   22.9400000  
C 13.2660000   20.0220000   22.8910000  
C 14.2310000   21.3840000   19.5010000  
C 15.3050000   20.7360000   18.8540000  
N 15.7820000   19.8030000   19.7680000  
O 15.2320000   21.9240000   16.7570000  
C 15.8680000   21.0360000   17.4980000  
O 16.8480000   20.4170000   17.0120000  
O 13.9860000   17.9060000   23.7750000  
O 12.3010000   20.1010000   23.8200000  
H 13.6190000   22.2490000   19.1150000  
H 14.3890000   22.0370000   17.2310000  
H 16.4350000   19.0520000   19.5430000  
H 14.6800000   17.2550000   23.7620000  
H 12.6190000   19.4210000   24.5000000  
C 16.0730000   17.6640000   21.9130000  
C 17.4100000   17.7740000   22.3910000  
C 18.3270000   16.7960000   22.1980000  
C 18.1020000   15.5980000   21.4050000  
C 16.8040000   15.5160000   20.8230000  
C 15.8650000   16.5430000   21.1040000  
C 18.1660000   18.8530000   23.0830000  
C 19.4420000   18.3710000   23.3680000  
N 19.5390000   17.1160000   22.7490000  
O 20.3110000   20.1700000   24.7960000  
C 20.5730000   19.0240000   24.0620000  
O 21.7260000   18.6480000   23.9270000  
O 16.3190000   14.5510000   19.9980000  
O 14.6310000   16.4760000   20.5730000  
H 17.8360000   19.8410000   23.3990000  
H 19.3740000   20.2650000   24.8710000  
H 20.2330000   16.4050000   22.9900000  
H 15.4650000   14.8340000   19.6050000  
H 14.1240000   17.2340000   20.8640000  
C 19.1390000   14.5270000   21.3510000  
C 19.5090000   13.8030000   22.5290000  
C 20.5120000   12.8420000   22.4660000  
C 21.1570000   12.4350000   21.3290000  
C 20.7660000   13.1490000   20.1220000  
C 19.7790000   14.1440000   20.1220000  
C 19.1250000   13.9300000   23.8990000  
C 19.9940000   13.0850000   24.6080000  
N 20.8310000   12.4020000   23.7310000  
O 19.2140000   13.7200000   26.7770000  
C 20.1770000   13.0640000   26.1340000  
O 21.1470000   12.6170000   26.7310000  
O 21.4590000   12.8120000   18.9940000  
O 19.4250000   14.8200000   18.9810000  
H 18.5150000   14.6870000   24.2720000  
H 18.4990000   13.8830000   26.1780000  
H 21.5700000   11.7760000   24.0090000  
H 21.3250000   13.4770000   18.2660000  
H 18.8080000   15.5190000   19.2710000  
H 21.8980000   11.6400000   21.2600000  
