76
001 
C 11.6380000   24.2770000   23.3050000  
C 10.2970000   24.0040000   22.6870000  
C 10.1020000   22.8360000   22.0430000  
C 11.0840000   21.8350000   21.9350000  
C 12.4040000   22.0360000   22.4000000  
C 12.6770000   23.2450000   23.0230000  
C  8.9690000   22.3020000   21.3820000  
C  9.3260000   21.0700000   20.9340000  
N 10.6340000   20.7660000   21.2650000  
O  7.2490000   20.6660000   19.8130000  
C  8.4750000   20.1410000   20.1310000  
O  8.8150000   18.9990000   19.7620000  
O 13.9230000   23.6600000   23.3510000  
O 11.9050000   25.3140000   23.9050000  
H  9.5990000   24.7930000   22.8530000  
H  8.1090000   22.7900000   21.2850000  
H  7.2480000   21.5300000   20.2910000  
H 14.5430000   22.9710000   23.0110000  
C 13.4160000   20.9260000   22.2550000  
C 14.1840000   20.8990000   21.1110000  
C 15.1700000   19.9720000   20.8950000  
C 15.4120000   18.9770000   21.8140000  
C 14.6870000   19.0400000   23.0270000  
C 13.6270000   19.9560000   23.2040000  
C 14.2480000   21.8060000   19.9980000  
C 15.1250000   21.2400000   19.0850000  
N 15.7320000   20.0860000   19.6370000  
O 14.6840000   22.8050000   17.2830000  
C 15.2210000   21.6360000   17.6380000  
O 15.8610000   20.9670000   16.8220000  
O 14.8980000   17.9980000   23.9320000  
O 12.9200000   19.9120000   24.3670000  
H 13.6240000   22.7330000   19.8490000  
H 14.5030000   23.3450000   18.0790000  
H 16.2030000   19.4360000   19.0870000  
H 15.7240000   17.5820000   23.5070000  
H 13.2250000   18.9930000   24.6860000  
C 16.4120000   17.8860000   21.5190000  
C 17.5730000   17.8240000   22.2860000  
C 18.4430000   16.8410000   22.0660000  
C 18.3760000   15.8450000   21.0850000  
C 17.2710000   15.9560000   20.2050000  
C 16.3140000   16.9710000   20.4220000  
C 17.9980000   18.6200000   23.3340000  
C 19.1730000   18.0620000   23.7940000  
N 19.4710000   16.9050000   22.9990000  
O 19.6650000   19.8380000   25.3480000  
C 20.0480000   18.6250000   24.8830000  
O 21.0980000   18.0910000   25.2370000  
O 17.2300000   15.2080000   19.0750000  
O 15.3140000   17.0850000   19.5580000  
H 17.4190000   19.3940000   23.8460000  
H 18.8230000   20.0090000   24.9250000  
H 20.0880000   16.1480000   23.2390000  
H 16.4660000   15.4860000   18.5150000  
H 14.6880000   17.7100000   19.9350000  
C 19.4160000   14.7550000   20.9320000  
C 19.3700000   13.4990000   21.6290000  
C 20.3690000   12.5860000   21.5960000  
C 21.3870000   12.6180000   20.6670000  
C 21.5180000   13.8630000   20.0100000  
C 20.5770000   14.8670000   20.1140000  
C 18.4550000   13.0140000   22.6630000  
C 18.9640000   11.7910000   23.1730000  
N 20.1790000   11.5950000   22.5460000  
O 17.1060000   11.5550000   24.4880000  
C 18.3230000   10.9920000   24.2150000  
O 18.8010000    9.9740000   24.6570000  
O 22.6230000   13.9360000   19.2760000  
O 20.7330000   15.9720000   19.3420000  
H 17.5600000   13.4540000   22.9530000  
H 16.9470000   12.3250000   23.8960000  
H 20.8610000   10.8100000   22.5660000  
H 22.7090000   14.8190000   18.9140000  
H 20.0740000   16.6510000   19.6070000  
H 22.1760000   11.8640000   20.6610000  
