76
001 
C 12.3650000   19.1270000   28.2650000  
C 13.4370000   19.3410000   29.2800000  
C 14.7490000   19.2550000   28.8660000  
C 15.1340000   18.9330000   27.5560000  
C 14.1200000   18.7330000   26.5460000  
C 12.7960000   18.8160000   26.8610000  
C 15.8630000   19.2960000   29.6200000  
C 16.9130000   19.0960000   28.6790000  
N 16.4560000   18.9370000   27.3850000  
O 18.7430000   19.1450000   30.3380000  
C 18.3590000   18.9940000   29.0370000  
O 19.1920000   18.7030000   28.2300000  
O 11.7440000   18.7520000   26.0430000  
O 11.1820000   19.1430000   28.6060000  
H 13.1450000   19.5640000   30.2760000  
H 15.9540000   19.4270000   30.7400000  
H 17.9700000   19.4150000   30.8810000  
H 10.9300000   18.8580000   26.6860000  
C 14.5750000   18.5130000   25.1520000  
C 14.8210000   17.2840000   24.5770000  
C 15.1930000   17.1790000   23.2440000  
C 15.4370000   18.2650000   22.4210000  
C 15.1740000   19.5630000   22.9320000  
C 14.7620000   19.6140000   24.2830000  
C 14.8430000   15.9750000   25.1960000  
C 15.2540000   15.1290000   24.1420000  
N 15.5520000   15.9020000   22.9650000  
O 15.0970000   13.2940000   25.6010000  
C 15.3310000   13.6640000   24.3710000  
O 15.5480000   12.8780000   23.4940000  
O 15.4330000   20.6780000   22.2200000  
O 14.5040000   20.8350000   24.8080000  
H 14.5200000   15.7240000   26.2070000  
H 15.0390000   14.1480000   26.0080000  
H 15.9110000   15.5290000   22.0910000  
H 15.4750000   20.5290000   21.2980000  
H 14.7790000   21.5710000   24.2370000  
C 16.0640000   18.0750000   21.1020000  
C 15.3500000   18.4300000   19.9360000  
C 15.8600000   18.0920000   18.7190000  
C 17.1340000   17.5470000   18.4570000  
C 17.8630000   17.1950000   19.6710000  
C 17.3590000   17.4420000   20.9820000  
C 14.0350000   19.0140000   19.7280000  
C 13.8210000   18.9870000   18.3120000  
N 14.8920000   18.2700000   17.7150000  
O 11.6680000   20.1720000   18.3680000  
C 12.6560000   19.5990000   17.5920000  
O 12.5120000   19.5020000   16.4440000  
O 19.0680000   16.5440000   19.5720000  
O 18.1550000   17.0640000   22.0480000  
H 13.3970000   19.5500000   20.4240000  
H 11.8630000   19.9020000   19.2760000  
H 15.0600000   18.1650000   16.7180000  
H 19.5200000   16.6960000   20.4100000  
H 17.7650000   17.3900000   22.8420000  
C 17.4930000   17.4200000   17.0420000  
C 17.4330000   18.5280000   16.1140000  
C 17.8580000   18.3610000   14.8330000  
C 18.5420000   17.1720000   14.3690000  
C 18.4910000   16.0670000   15.2340000  
C 17.9480000   16.2140000   16.5850000  
C 16.8060000   19.8760000   16.1820000  
C 17.0940000   20.5390000   15.0050000  
N 17.7210000   19.5630000   14.1900000  
O 16.0740000   22.5370000   15.4820000  
C 16.7680000   21.8830000   14.5290000  
O 17.1490000   22.3760000   13.4710000  
O 18.9670000   14.9000000   14.6970000  
O 17.9460000   15.0880000   17.4860000  
H 16.4240000   20.3400000   17.0650000  
H 16.0300000   21.9620000   16.2640000  
H 17.9550000   19.8110000   13.2380000  
H 19.0170000   14.3210000   15.4470000  
H 18.1980000   15.4490000   18.4070000  
H 18.8970000   17.0550000   13.3630000  
