76
001 
C  9.0120000   21.5890000   22.0430000  
C  8.6270000   21.5910000   20.5740000  
C  9.5150000   21.3640000   19.5440000  
C 10.8360000   20.9480000   19.7850000  
C 11.2210000   20.6160000   21.1310000  
C 10.3940000   20.9810000   22.1870000  
C  9.3970000   21.3630000   18.1700000  
C 10.6610000   20.9740000   17.6850000  
N 11.5230000   20.6280000   18.7290000  
O  9.9170000   21.0540000   15.4120000  
C 10.9550000   20.7270000   16.2030000  
O 12.0470000   20.3510000   15.8220000  
O 10.8570000   20.9110000   23.5210000  
O  8.3100000   21.9570000   22.9670000  
H  7.6680000   21.9870000   20.3790000  
H  8.5350000   21.5490000   17.6410000  
H  9.2420000   21.4520000   16.0240000  
H 10.2410000   21.4690000   24.1050000  
C 12.5290000   19.9710000   21.4030000  
C 13.6330000   20.6570000   21.8990000  
C 14.8270000   20.0200000   22.0660000  
C 15.0430000   18.6460000   21.7570000  
C 13.8960000   17.9490000   21.2230000  
C 12.6980000   18.6040000   20.9820000  
C 13.8820000   22.0090000   21.9870000  
C 15.2870000   22.1270000   22.2160000  
N 15.8460000   20.8820000   22.3540000  
O 15.3060000   24.5260000   22.1230000  
C 16.0220000   23.4470000   22.3020000  
O 17.1780000   23.5440000   22.6480000  
O 14.0220000   16.6390000   20.8730000  
O 11.6050000   17.9420000   20.5240000  
H 13.1310000   22.8630000   21.8550000  
H 14.4560000   24.1530000   21.8650000  
H 16.8050000   20.6860000   22.5180000  
H 14.9240000   16.3620000   21.0860000  
H 11.7600000   17.0200000   20.6240000  
C 16.4050000   18.0280000   21.9770000  
C 16.5190000   16.9780000   22.9550000  
C 17.7180000   16.3580000   23.2210000  
C 18.8890000   16.8060000   22.6250000  
C 18.7910000   17.9130000   21.6500000  
C 17.5960000   18.5600000   21.4140000  
C 15.5310000   16.3540000   23.8070000  
C 16.2140000   15.4040000   24.5900000  
N 17.6530000   15.4640000   24.3220000  
O 14.3250000   14.6340000   25.8200000  
C 15.6070000   14.4520000   25.5540000  
O 16.2040000   13.5560000   26.1520000  
O 19.9810000   18.3000000   20.9730000  
O 17.5020000   19.4810000   20.3800000  
H 14.4740000   16.4690000   23.8900000  
H 13.9930000   15.3630000   25.2940000  
H 18.3750000   14.9720000   24.8100000  
H 19.6390000   18.8800000   20.2690000  
H 16.5400000   19.7940000   20.4000000  
C 20.1870000   16.1720000   22.9530000  
C 20.7170000   15.0570000   22.2480000  
C 21.9680000   14.5820000   22.5680000  
C 22.7960000   15.1960000   23.5560000  
C 22.2900000   16.2130000   24.3900000  
C 21.0100000   16.7270000   24.0120000  
C 20.2930000   14.4240000   21.0560000  
C 21.3510000   13.5400000   20.7140000  
N 22.3390000   13.6460000   21.6480000  
O 20.1960000   12.6940000   18.9360000  
C 21.3480000   12.5780000   19.5670000  
O 22.2260000   11.7680000   19.2340000  
O 23.2270000   16.8600000   25.1170000  
O 20.6670000   17.9330000   24.5350000  
H 19.3220000   14.6780000   20.5950000  
H 19.6800000   13.2950000   19.4600000  
H 23.2190000   13.2640000   21.5400000  
H 22.7720000   17.6940000   25.4590000  
H 19.9240000   18.3000000   24.0060000  
H 23.8110000   14.8530000   23.6440000  
