76
001 
C 12.7740000   15.1030000   15.7790000  
C 11.5660000   14.3950000   16.1310000  
C 11.1560000   14.4670000   17.4440000  
C 11.9640000   15.0260000   18.5050000  
C 13.1890000   15.6610000   18.1760000  
C 13.6160000   15.6700000   16.8780000  
C 10.1300000   13.7950000   18.1230000  
C 10.4340000   13.9000000   19.4950000  
N 11.5480000   14.7020000   19.6870000  
O  8.5530000   12.5550000   20.0840000  
C  9.5460000   13.3300000   20.5210000  
O  9.7290000   13.4920000   21.7270000  
O 14.7880000   16.1940000   16.4490000  
O 13.1230000   15.0960000   14.6120000  
H 11.0080000   13.9580000   15.3560000  
H  9.3610000   13.2160000   17.6940000  
H  8.5810000   12.6430000   19.1430000  
H 14.6190000   16.4800000   15.5920000  
C 13.9480000   16.3980000   19.1940000  
C 14.8500000   15.8060000   20.0450000  
C 15.4520000   16.4540000   21.0600000  
C 15.2690000   17.7960000   21.4190000  
C 14.3660000   18.4070000   20.5570000  
C 13.6320000   17.6990000   19.5450000  
C 15.3130000   14.4530000   20.1420000  
C 16.3410000   14.4240000   21.0480000  
N 16.3930000   15.6290000   21.7050000  
O 16.9810000   12.1990000   20.4920000  
C 17.3010000   13.3190000   21.2330000  
O 18.2410000   13.3760000   22.0140000  
O 14.1670000   19.7900000   20.8070000  
O 12.7020000   18.4350000   18.7880000  
H 15.1060000   13.6170000   19.4670000  
H 16.1520000   12.3650000   20.0780000  
H 16.9000000   15.8820000   22.5330000  
H 14.9620000   20.1160000   21.3110000  
H 12.5420000   19.2220000   19.2570000  
C 16.0830000   18.4480000   22.5180000  
C 17.0310000   19.3930000   22.0000000  
C 17.7390000   20.1810000   22.7810000  
C 17.7780000   19.9960000   24.2170000  
C 16.8740000   19.0180000   24.7710000  
C 15.9700000   18.2970000   23.9310000  
C 17.6230000   19.6210000   20.7000000  
C 18.5760000   20.6110000   20.8090000  
N 18.6250000   20.9770000   22.1380000  
O 19.0320000   20.5450000   18.4740000  
C 19.4560000   21.0450000   19.7050000  
O 20.3840000   21.7930000   19.8490000  
O 16.7330000   18.9220000   26.1720000  
O 15.0550000   17.4200000   24.4630000  
H 17.2080000   19.2360000   19.8400000  
H 18.2850000   19.9090000   18.5700000  
H 19.2100000   21.6600000   22.6500000  
H 15.8060000   19.0260000   26.4130000  
H 14.4840000   17.1360000   23.7220000  
C 18.6710000   20.7680000   25.0770000  
C 18.3210000   22.1040000   25.3330000  
C 19.1910000   22.9540000   25.9730000  
C 20.4690000   22.4700000   26.4420000  
C 20.8060000   21.1440000   26.2040000  
C 19.9660000   20.3120000   25.4200000  
C 17.1620000   22.8640000   24.9750000  
C 17.3370000   24.1210000   25.4670000  
N 18.6300000   24.1850000   26.0860000  
O 15.1800000   25.0930000   24.8720000  
C 16.3870000   25.2860000   25.4550000  
O 16.6850000   26.2880000   26.0460000  
O 22.0590000   20.6660000   26.5100000  
O 20.1730000   18.9950000   25.1580000  
H 16.2700000   22.5700000   24.3710000  
H 15.1570000   24.1500000   24.5870000  
H 19.0230000   25.0050000   26.5170000  
H 21.9960000   19.7960000   26.1930000  
H 19.3280000   18.6330000   24.8390000  
H 21.1220000   23.0850000   26.9940000  
