76
001 
C 15.0940000   17.6820000   29.2990000  
C 14.9650000   16.2930000   29.4200000  
C 15.0870000   15.4780000   28.3510000  
C 15.4780000   15.9250000   27.0880000  
C 15.5840000   17.3760000   26.8920000  
C 15.4170000   18.2470000   27.9370000  
C 15.0100000   14.0870000   28.1540000  
C 15.3360000   13.8300000   26.8140000  
N 15.5700000   15.0040000   26.1970000  
O 15.0640000   11.4300000   26.9440000  
C 15.2840000   12.5120000   26.1500000  
O 15.4620000   12.4180000   24.9480000  
O 15.5740000   19.6260000   27.7660000  
O 14.7340000   18.3400000   30.2660000  
H 14.7420000   15.9120000   30.4270000  
H 14.6120000   13.3390000   28.8510000  
H 15.0800000   11.8640000   27.8210000  
H 15.5690000   20.0010000   28.7200000  
C 15.7510000   17.8410000   25.5070000  
C 14.7480000   18.5860000   24.8760000  
C 14.7860000   18.9910000   23.6180000  
C 15.7960000   18.5550000   22.6500000  
C 16.8190000   17.7920000   23.2540000  
C 16.8250000   17.4810000   24.6540000  
C 13.4840000   19.2320000   25.3730000  
C 12.9140000   20.0220000   24.3510000  
N 13.6850000   19.7710000   23.2050000  
O 11.4200000   21.2990000   25.7060000  
C 11.8160000   21.0210000   24.4370000  
O 11.3570000   21.6240000   23.4880000  
O 17.8800000   17.4360000   22.4650000  
O 17.9550000   16.9330000   25.2280000  
H 13.0910000   18.9950000   26.2900000  
H 12.1230000   20.8460000   26.3110000  
H 13.5320000   20.1410000   22.3120000  
H 17.7130000   17.9370000   21.6150000  
H 17.8620000   17.1310000   26.1500000  
C 15.7510000   18.8430000   21.1060000  
C 16.7490000   19.5310000   20.4000000  
C 16.7120000   19.6610000   19.0510000  
C 15.7320000   19.0560000   18.2590000  
C 14.6660000   18.3060000   18.9090000  
C 14.6960000   18.2220000   20.3550000  
C 17.8320000   20.3550000   20.8760000  
C 18.3380000   20.9160000   19.7190000  
N 17.6830000   20.4370000   18.5630000  
O 19.9490000   22.1680000   20.8920000  
C 19.3450000   21.9540000   19.7040000  
O 19.7140000   22.4940000   18.7180000  
O 13.6800000   17.6030000   18.2790000  
O 13.7740000   17.4360000   20.9400000  
H 18.1900000   20.5230000   21.8870000  
H 19.4030000   21.7280000   21.5820000  
H 17.9170000   20.6480000   17.6240000  
H 13.0960000   17.1940000   18.8840000  
H 14.1480000   17.3920000   21.9040000  
C 15.6430000   19.2980000   16.7880000  
C 16.5370000   18.6550000   15.9480000  
C 16.5660000   18.8510000   14.5830000  
C 15.7670000   19.7930000   14.0040000  
C 14.7640000   20.4190000   14.7250000  
C 14.7220000   20.2020000   16.1430000  
C 17.4550000   17.6090000   16.2750000  
C 17.9960000   17.1960000   15.0880000  
N 17.5340000   18.0150000   14.0410000  
O 19.2060000   15.4310000   16.1600000  
C 18.8370000   15.9990000   15.0030000  
O 19.3420000   15.5760000   13.9530000  
O 13.8390000   21.2560000   14.1400000  
O 13.9330000   20.9980000   16.8940000  
H 17.6440000   17.2100000   17.3060000  
H 18.6950000   15.9190000   16.8350000  
H 17.7570000   17.9930000   13.0490000  
H 13.2220000   21.5650000   14.8010000  
H 14.0740000   20.7600000   17.8590000  
H 15.8560000   20.0580000   12.9430000  
