76
001 
C 17.7700000   12.8340000   25.8950000  
C 16.7550000   12.2730000   26.7610000  
C 15.4650000   12.7190000   26.7050000  
C 15.0670000   13.6710000   25.7010000  
C 15.9970000   14.2490000   24.8030000  
C 17.2930000   13.7950000   24.9210000  
C 14.3850000   12.4850000   27.5150000  
C 13.3370000   13.2340000   26.9850000  
N 13.7960000   13.9530000   25.8980000  
O 11.7980000   12.6530000   28.7590000  
C 11.9970000   13.3740000   27.5980000  
O 11.1900000   14.1430000   27.1290000  
O 18.3300000   14.1320000   24.1390000  
O 18.9400000   12.4560000   25.9440000  
H 17.1880000   11.6130000   27.5110000  
H 14.4440000   11.7500000   28.3950000  
H 12.7190000   12.3080000   29.0390000  
H 19.1540000   13.5160000   24.2060000  
C 15.6590000   15.3710000   23.8310000  
C 15.4440000   16.7100000   24.2780000  
C 15.2230000   17.6660000   23.3010000  
C 15.2170000   17.4840000   21.9320000  
C 15.4750000   16.1820000   21.5040000  
C 15.6960000   15.0950000   22.4000000  
C 15.3340000   17.3130000   25.5470000  
C 15.1480000   18.6530000   25.3070000  
N 15.1790000   18.9180000   23.9250000  
O 14.6340000   19.1400000   27.4780000  
C 14.9630000   19.7140000   26.2800000  
O 14.9980000   20.9210000   26.0560000  
O 15.3730000   15.8690000   20.1340000  
O 15.9900000   13.8220000   21.9060000  
H 15.5350000   16.8750000   26.5050000  
H 14.3990000   18.1890000   27.3420000  
H 14.9110000   19.7920000   23.4740000  
H 14.7350000   16.5270000   19.6660000  
H 15.9560000   13.1340000   22.6630000  
C 15.2740000   18.7430000   21.0830000  
C 16.4790000   19.0420000   20.4460000  
C 16.6190000   20.0980000   19.5860000  
C 15.5790000   20.9950000   19.3550000  
C 14.3020000   20.6780000   19.8860000  
C 14.1580000   19.5590000   20.7800000  
C 17.8000000   18.4040000   20.4000000  
C 18.6170000   19.1240000   19.5680000  
N 17.8550000   20.1790000   18.9940000  
O 20.6130000   17.9580000   20.1710000  
C 20.0280000   18.8550000   19.2610000  
O 20.6640000   19.3600000   18.3480000  
O 13.1880000   21.4320000   19.5870000  
O 12.9110000   19.3190000   21.2070000  
H 18.1170000   17.5530000   21.0320000  
H 19.9390000   17.6160000   20.8070000  
H 18.1510000   20.6870000   18.2080000  
H 12.4980000   20.7490000   19.7490000  
H 12.8640000   18.3760000   21.4350000  
C 15.8190000   22.2360000   18.5770000  
C 16.0210000   22.2190000   17.1480000  
C 16.2760000   23.3530000   16.4710000  
C 16.3210000   24.6280000   17.0690000  
C 16.1140000   24.7260000   18.4780000  
C 15.7920000   23.5210000   19.1710000  
C 16.0430000   21.1370000   16.2030000  
C 16.2040000   21.6960000   14.9500000  
N 16.4160000   23.0750000   15.1180000  
O 15.5640000   19.7480000   13.7430000  
C 16.1730000   20.9810000   13.6480000  
O 16.4990000   21.5280000   12.6280000  
O 16.2940000   25.9490000   19.1780000  
O 15.6390000   23.4270000   20.5270000  
H 16.0410000   20.0660000   16.3060000  
H 15.4120000   19.5790000   14.6750000  
H 16.7130000   23.7120000   14.3860000  
H 16.4350000   25.7930000   20.1580000  
H 15.2660000   22.6050000   20.7920000  
H 16.5960000   25.5000000   16.4470000  
