76
001 
C 14.5140000   12.4150000   17.4200000  
C 13.2230000   11.7560000   17.7870000  
C 12.4950000   12.2480000   18.8130000  
C 12.8940000   13.4540000   19.5410000  
C 14.1060000   14.1420000   19.2250000  
C 14.9430000   13.5850000   18.2170000  
C 11.2690000   11.8300000   19.3250000  
C 11.0490000   12.6420000   20.3820000  
N 12.0420000   13.5780000   20.5470000  
O  9.1520000   11.4110000   21.1900000  
C  9.9270000   12.5200000   21.3740000  
O  9.7700000   13.3520000   22.2830000  
O 16.2440000   13.9810000   17.9450000  
O 15.2900000   11.8730000   16.6070000  
H 12.8040000   10.9330000   17.1790000  
H 10.7250000   11.0220000   18.9420000  
H  9.4370000   10.9110000   20.4020000  
H 16.7190000   13.1360000   17.7220000  
C 14.4020000   15.3600000   19.9890000  
C 15.2930000   15.3480000   20.9990000  
C 15.6900000   16.5250000   21.5610000  
C 15.0800000   17.8210000   21.3480000  
C 14.0890000   17.8250000   20.3150000  
C 13.7140000   16.5680000   19.6760000  
C 16.0790000   14.2900000   21.6480000  
C 16.9250000   14.9840000   22.5660000  
N 16.7360000   16.3570000   22.4630000  
O 17.9370000   12.9560000   23.4710000  
C 17.9080000   14.3200000   23.4860000  
O 18.5850000   14.9430000   24.3100000  
O 13.6700000   19.0380000   19.7940000  
O 12.8730000   16.6600000   18.5770000  
H 16.0150000   13.1690000   21.4610000  
H 17.3460000   12.6980000   22.7360000  
H 16.9780000   17.1070000   23.1250000  
H 14.0850000   19.8400000   20.1080000  
H 12.3370000   17.5160000   18.7170000  
C 15.4260000   18.9230000   22.1790000  
C 16.7470000   19.3950000   22.1110000  
C 17.0980000   20.4680000   22.7290000  
C 16.2580000   21.3070000   23.4950000  
C 14.9340000   20.8110000   23.5650000  
C 14.4960000   19.6950000   22.8660000  
C 17.9760000   19.0260000   21.3380000  
C 18.9610000   19.9520000   21.6140000  
N 18.3950000   20.8170000   22.5910000  
O 20.5030000   18.9220000   20.2400000  
C 20.3200000   19.9050000   21.0770000  
O 21.1230000   20.7730000   21.3840000  
O 13.9920000   21.5740000   24.2730000  
O 13.1700000   19.4010000   22.9220000  
H 18.0330000   18.2540000   20.5540000  
H 19.6330000   18.4930000   20.3570000  
H 18.8400000   21.6830000   22.9510000  
H 13.0930000   21.1240000   24.2800000  
H 13.0480000   18.6280000   22.3840000  
C 16.7000000   22.5570000   24.1700000  
C 17.3890000   23.5840000   23.4240000  
C 17.9250000   24.6740000   24.0240000  
C 17.9420000   24.8730000   25.4220000  
C 17.3450000   23.8540000   26.1680000  
C 16.6770000   22.7330000   25.6030000  
C 17.6230000   23.6980000   22.0040000  
C 18.4380000   24.8000000   21.8000000  
N 18.6090000   25.4000000   23.0290000  
O 18.5660000   24.7190000   19.3850000  
C 18.9620000   25.3540000   20.5380000  
O 19.9000000   26.1250000   20.5370000  
O 17.3990000   23.8970000   27.4960000  
O 16.1580000   21.7740000   26.4720000  
H 17.1890000   23.1040000   21.1110000  
H 17.9170000   24.0800000   19.6210000  
H 19.0600000   26.2980000   23.1240000  
H 17.3010000   22.9140000   27.8180000  
H 15.6060000   21.2450000   25.8560000  
H 18.4790000   25.5880000   25.9050000  
