76
001 
C 11.4160000   20.6670000   27.5140000  
C 11.1840000   22.1100000   27.1710000  
C 11.8190000   22.6100000   26.0410000  
C 12.5720000   21.8860000   25.1590000  
C 12.7540000   20.4540000   25.3750000  
C 12.2520000   19.8690000   26.5030000  
C 11.7180000   23.9140000   25.5540000  
C 12.5180000   23.9260000   24.4820000  
N 13.0420000   22.6570000   24.1680000  
O 12.5080000   26.3120000   24.0530000  
C 12.8480000   25.0670000   23.6540000  
O 13.4820000   25.0640000   22.6170000  
O 12.2540000   18.5760000   26.7400000  
O 11.0140000   20.1650000   28.5580000  
H 10.5230000   22.6660000   27.8040000  
H 11.1220000   24.7440000   25.9740000  
H 12.1480000   26.1650000   24.9460000  
H 12.6930000   18.1610000   25.9670000  
C 13.5610000   19.8170000   24.3540000  
C 15.0120000   19.8830000   24.3770000  
C 15.7420000   19.2990000   23.3430000  
C 15.1750000   18.6590000   22.2260000  
C 13.7200000   18.4700000   22.2560000  
C 12.9980000   19.0670000   23.3410000  
C 16.0070000   20.4260000   25.3220000  
C 17.2650000   20.1590000   24.7690000  
N 17.0470000   19.3820000   23.5500000  
O 18.5350000   21.5550000   26.3340000  
C 18.5890000   20.7030000   25.2400000  
O 19.6420000   20.3910000   24.7080000  
O 13.0670000   17.9200000   21.1740000  
O 11.6150000   18.9990000   23.3680000  
H 15.8340000   21.1060000   26.0990000  
H 17.6450000   21.7950000   26.6340000  
H 17.8170000   19.0100000   23.0140000  
H 13.8170000   17.5990000   20.5550000  
H 11.2600000   19.5900000   22.6470000  
C 15.9990000   18.0380000   21.1030000  
C 16.1010000   16.6700000   20.8120000  
C 17.0580000   16.1640000   20.0130000  
C 17.9460000   16.9360000   19.1820000  
C 17.6920000   18.3900000   19.2550000  
C 16.7370000   18.9240000   20.2170000  
C 15.4040000   15.5450000   21.3310000  
C 15.9450000   14.3800000   20.8400000  
N 17.0500000   14.7780000   20.0420000  
O 14.3300000   12.9830000   21.8510000  
C 15.5050000   12.9460000   21.0900000  
O 16.1670000   12.0030000   20.6180000  
O 18.4060000   19.2930000   18.4780000  
O 16.7240000   20.2490000   20.4770000  
H 14.5660000   15.6640000   22.0480000  
H 14.0590000   13.8870000   22.0840000  
H 17.6840000   14.1950000   19.5680000  
H 18.0390000   20.1840000   18.5740000  
H 16.4110000   20.3830000   21.4290000  
C 18.9330000   16.2790000   18.2760000  
C 18.5330000   15.1250000   17.5390000  
C 19.4730000   14.4650000   16.7200000  
C 20.7720000   14.9320000   16.5870000  
C 21.2320000   15.9950000   17.4600000  
C 20.3180000   16.6450000   18.2660000  
C 17.2310000   14.6340000   17.0820000  
C 17.4230000   13.5990000   16.1800000  
N 18.8200000   13.4810000   16.0030000  
O 15.2920000   12.6160000   16.2700000  
C 16.4690000   12.6140000   15.6830000  
O 16.7890000   11.8210000   14.8460000  
O 22.5000000   16.4750000   17.3980000  
O 20.7750000   17.6650000   19.0250000  
H 16.3190000   15.1100000   17.4290000  
H 15.4200000   13.2670000   16.9620000  
H 19.3610000   12.8390000   15.4630000  
H 22.4020000   17.3090000   17.8170000  
H 19.9830000   18.1390000   19.3360000  
H 21.4630000   14.5690000   15.8590000  
