76
001 
C 12.1390000   23.5330000   24.9900000  
C 12.1120000   23.4480000   26.4480000  
C 12.9010000   22.4950000   27.0150000  
C 13.6420000   21.5060000   26.3170000  
C 13.6970000   21.5870000   24.9580000  
C 13.0700000   22.6130000   24.2920000  
C 13.0510000   22.1480000   28.3320000  
C 13.8260000   20.9880000   28.3670000  
N 14.1960000   20.5870000   27.1150000  
O 13.7220000   20.7120000   30.6880000  
C 14.1840000   20.1540000   29.5240000  
O 14.7850000   19.1230000   29.4900000  
O 13.1320000   22.7420000   22.9500000  
O 11.5600000   24.4210000   24.4500000  
H 11.4620000   24.1550000   27.0410000  
H 12.5550000   22.6290000   29.1480000  
H 13.2340000   21.4720000   30.4140000  
H 13.2770000   23.7230000   22.8040000  
C 14.5040000   20.5870000   24.1340000  
C 13.9150000   19.4380000   23.6400000  
C 14.6410000   18.5830000   22.8960000  
C 15.9850000   18.6850000   22.6160000  
C 16.6140000   19.7790000   23.1580000  
C 15.9200000   20.7460000   23.9130000  
C 12.5310000   19.0930000   23.5960000  
C 12.4090000   18.0050000   22.6870000  
N 13.7660000   17.6230000   22.3750000  
O 10.1550000   17.9000000   22.8290000  
C 11.2040000   17.3520000   22.2500000  
O 11.1990000   16.4410000   21.4540000  
O 17.9000000   20.0580000   22.7470000  
O 16.6120000   21.8320000   24.4650000  
H 11.7720000   19.6920000   24.0850000  
H 10.5420000   18.4820000   23.4420000  
H 14.1200000   16.7860000   21.9290000  
H 18.2800000   19.3370000   22.2840000  
H 16.0960000   22.1450000   25.2050000  
C 16.7270000   17.7330000   21.6570000  
C 16.1170000   17.3970000   20.4290000  
C 16.6890000   16.4400000   19.6520000  
C 17.9200000   15.8620000   19.8630000  
C 18.5330000   16.2380000   20.9950000  
C 17.9530000   17.0730000   22.0050000  
C 15.0120000   17.9840000   19.6790000  
C 14.8840000   17.2140000   18.5310000  
N 15.9660000   16.2830000   18.5080000  
O 12.8710000   18.0290000   17.7620000  
C 13.8120000   17.1420000   17.5250000  
O 13.7750000   16.4570000   16.5230000  
O 19.8250000   15.8280000   21.1810000  
O 18.6880000   17.2790000   23.1520000  
H 14.4580000   18.8690000   20.0050000  
H 13.1370000   18.6480000   18.5130000  
H 16.1740000   15.5840000   17.7720000  
H 20.1680000   16.4160000   21.8910000  
H 18.1960000   17.8920000   23.7870000  
C 18.5160000   14.9530000   18.8840000  
C 18.8970000   15.4350000   17.6140000  
C 19.6040000   14.6520000   16.7440000  
C 19.8860000   13.3310000   16.9930000  
C 19.5350000   12.8230000   18.2580000  
C 18.7900000   13.5820000   19.1650000  
C 19.1250000   16.7850000   17.1310000  
C 19.6920000   16.7110000   15.8730000  
N 20.0410000   15.4150000   15.6800000  
O 19.7690000   19.0200000   15.3350000  
C 20.1020000   17.7640000   14.9530000  
O 20.7240000   17.5520000   13.9000000  
O 19.9570000   11.5770000   18.4980000  
O 18.4050000   13.0820000   20.3880000  
H 18.7650000   17.6710000   17.6600000  
H 19.1150000   18.8850000   16.0000000  
H 20.4610000   15.1440000   14.8550000  
H 19.7560000   11.2760000   19.3630000  
H 17.9860000   13.8040000   20.8560000  
H 20.5870000   12.7420000   16.3690000  
