76
001 
C 14.3120000   11.2610000   21.4090000  
C 13.6610000   10.6750000   22.5890000  
C 13.4750000   11.4930000   23.6520000  
C 13.9050000   12.8520000   23.7590000  
C 14.5310000   13.4580000   22.5910000  
C 14.6940000   12.6990000   21.4760000  
C 12.9640000   11.1470000   24.9150000  
C 12.9970000   12.3470000   25.6450000  
N 13.6030000   13.4390000   24.9030000  
O 11.6090000   11.3760000   27.2950000  
C 12.3250000   12.4780000   26.9340000  
O 12.4310000   13.4130000   27.7350000  
O 15.1720000   13.2000000   20.3090000  
O 14.4480000   10.6150000   20.3540000  
H 13.3180000    9.6690000   22.4930000  
H 12.6610000   10.0730000   25.1370000  
H 11.7130000   10.7420000   26.5490000  
H 14.9500000   12.4950000   19.5920000  
C 14.8850000   14.8840000   22.5360000  
C 16.2820000   15.2880000   22.4960000  
C 16.6020000   16.5980000   22.5160000  
C 15.6690000   17.6600000   22.3510000  
C 14.2650000   17.2970000   22.3380000  
C 13.8960000   15.9220000   22.5420000  
C 17.4710000   14.4960000   22.3820000  
C 18.4850000   15.5020000   22.1310000  
N 17.9710000   16.7810000   22.3670000  
O 20.4310000   14.0390000   21.7950000  
C 19.9610000   15.2640000   21.9860000  
O 20.7870000   16.1400000   21.8960000  
O 13.3290000   18.2490000   22.0870000  
O 12.6260000   15.5200000   22.3440000  
H 17.6680000   13.4400000   22.5060000  
H 19.7040000   13.4810000   21.8670000  
H 18.5180000   17.6740000   22.4250000  
H 13.5570000   19.0750000   22.5910000  
H 12.6860000   14.6070000   22.1540000  
C 16.0720000   19.0800000   22.0840000  
C 16.8070000   19.4930000   20.9470000  
C 17.0760000   20.8260000   20.7630000  
C 16.6590000   21.9110000   21.5770000  
C 15.9970000   21.4490000   22.7720000  
C 15.7480000   20.0800000   23.0160000  
C 17.4310000   18.8130000   19.8360000  
C 18.0460000   19.8240000   19.0460000  
N 17.7480000   21.1200000   19.5940000  
O 19.3020000   18.3140000   17.5750000  
C 19.0970000   19.5590000   17.9850000  
O 19.8800000   20.4380000   17.7080000  
O 15.6070000   22.3030000   23.7070000  
O 15.0650000   19.8160000   24.0910000  
H 17.6120000   17.7390000   19.7290000  
H 18.5680000   17.9060000   18.0890000  
H 18.0080000   22.0210000   19.1240000  
H 14.8520000   21.8850000   24.1590000  
H 15.0550000   18.8650000   24.3050000  
C 16.7620000   23.3320000   21.2690000  
C 15.8170000   23.8730000   20.3330000  
C 15.9150000   25.2040000   19.9440000  
C 16.9290000   26.0530000   20.4130000  
C 17.8890000   25.5720000   21.3480000  
C 17.7320000   24.2290000   21.8780000  
C 14.8600000   23.2720000   19.4260000  
C 14.3400000   24.2840000   18.6290000  
N 14.9450000   25.5230000   18.9550000  
O 12.8470000   22.9030000   17.3430000  
C 13.3350000   24.1470000   17.5420000  
O 12.9490000   25.1360000   16.9120000  
O 18.9040000   26.4100000   21.6580000  
O 18.5850000   23.6820000   22.7580000  
H 14.5740000   22.2370000   19.5140000  
H 13.4120000   22.4320000   17.9550000  
H 14.9090000   26.4130000   18.5250000  
H 19.5350000   25.9880000   22.2870000  
H 18.3490000   22.7150000   22.7360000  
H 17.0710000   26.9900000   20.0170000  
