76
001 
C 12.1540000   20.3160000   27.9560000  
C 13.0880000   20.0430000   29.0520000  
C 14.3750000   19.5710000   28.8130000  
C 14.8650000   19.4010000   27.4710000  
C 13.9570000   19.6490000   26.3080000  
C 12.6560000   20.0530000   26.5720000  
C 15.4210000   19.1830000   29.6030000  
C 16.5150000   18.9270000   28.7450000  
N 16.1480000   18.9980000   27.3550000  
O 17.8770000   18.1300000   30.4570000  
C 17.8460000   18.4630000   29.1580000  
O 18.7850000   18.3840000   28.3760000  
O 11.7490000   20.2600000   25.6380000  
O 11.0390000   20.7670000   28.2700000  
H 12.7840000   20.2420000   30.0630000  
H 15.3970000   19.1120000   30.7310000  
H 17.0100000   18.3670000   30.7890000  
H 11.2100000   21.1310000   25.7950000  
C 14.4440000   19.4440000   24.9290000  
C 14.8570000   18.1340000   24.5120000  
C 15.2220000   17.9020000   23.2480000  
C 15.4330000   18.8280000   22.2670000  
C 14.9950000   20.1820000   22.6240000  
C 14.4710000   20.4540000   23.9380000  
C 14.9720000   16.9220000   25.2620000  
C 15.3330000   15.9490000   24.3810000  
N 15.5240000   16.5680000   23.1220000  
O 15.2940000   14.1890000   25.9760000  
C 15.6310000   14.5790000   24.7120000  
O 16.1060000   13.7590000   23.9810000  
O 15.1590000   21.2390000   21.6890000  
O 13.9940000   21.7590000   24.2050000  
H 14.5900000   16.6750000   26.2580000  
H 14.9780000   14.9420000   26.4950000  
H 15.9880000   16.1240000   22.3640000  
H 14.3670000   21.2590000   21.1450000  
H 14.2010000   22.3580000   23.5240000  
C 15.9780000   18.5020000   20.9470000  
C 15.3040000   17.7210000   20.0040000  
C 15.8690000   17.4480000   18.8270000  
C 17.1390000   17.8800000   18.4180000  
C 17.8750000   18.7060000   19.3160000  
C 17.2630000   19.0250000   20.5630000  
C 14.1110000   16.9270000   20.0670000  
C 14.0280000   16.1730000   18.9470000  
N 15.1500000   16.4910000   18.1430000  
O 12.1350000   14.9020000   19.6580000  
C 12.9700000   15.2160000   18.6370000  
O 12.8180000   14.6700000   17.5320000  
O 19.0810000   19.2620000   19.0180000  
O 17.9500000   19.8270000   21.4610000  
H 13.3420000   16.9390000   20.8600000  
H 12.4880000   15.4800000   20.3390000  
H 15.4200000   16.1490000   17.2080000  
H 19.4310000   19.6310000   19.8390000  
H 17.5450000   20.0880000   22.2640000  
C 17.6460000   17.4430000   17.0730000  
C 17.5720000   18.3830000   16.0050000  
C 18.1910000   18.1030000   14.8420000  
C 18.8790000   16.8480000   14.6430000  
C 18.9630000   15.9130000   15.6870000  
C 18.2210000   16.1890000   16.9110000  
C 16.9570000   19.6720000   15.8630000  
C 17.1720000   20.0890000   14.5740000  
N 18.1090000   19.2130000   14.0240000  
O 16.0730000   22.2470000   14.6140000  
C 16.8100000   21.3600000   13.8680000  
O 17.1750000   21.4720000   12.7220000  
O 19.6560000   14.7910000   15.5370000  
O 18.3110000   15.3170000   17.9460000  
H 16.3710000   20.0970000   16.5870000  
H 15.6480000   21.7600000   15.3520000  
H 18.6090000   19.3890000   13.2480000  
H 19.7880000   14.6360000   16.4890000  
H 17.7110000   15.5720000   18.7140000  
H 19.3250000   16.6980000   13.6710000  
