76
001 
C  8.7230000   20.5360000   20.7420000  
C  8.8110000   22.0400000   20.9100000  
C 10.0670000   22.6600000   20.9400000  
C 11.2610000   21.9380000   20.8850000  
C 11.2230000   20.5100000   20.8860000  
C 10.0180000   19.8300000   20.7090000  
C 10.3770000   24.0040000   21.1920000  
C 11.7720000   24.0580000   21.1600000  
N 12.3100000   22.7140000   21.0650000  
O 11.8590000   26.3630000   21.5050000  
C 12.5810000   25.2200000   21.4810000  
O 13.7930000   25.2380000   21.6450000  
O  9.8240000   18.5120000   20.5940000  
O  7.5950000   19.9730000   20.7030000  
H  7.9010000   22.6900000   20.8680000  
H  9.6550000   24.7580000   21.4720000  
H 10.9490000   26.1200000   21.4150000  
H  8.8680000   18.1980000   20.6560000  
C 12.5220000   19.8300000   20.8810000  
C 13.3590000   20.0080000   21.9870000  
C 14.5990000   19.4520000   21.9510000  
C 15.1390000   18.6500000   20.8980000  
C 14.3230000   18.4550000   19.7570000  
C 13.0000000   19.0140000   19.7780000  
C 13.2430000   20.6700000   23.2330000  
C 14.3940000   20.5310000   23.9140000  
N 15.2840000   19.8830000   23.0200000  
O 13.6840000   21.2660000   26.1420000  
C 14.7330000   20.8440000   25.3670000  
O 15.8280000   20.7420000   25.8800000  
O 14.7200000   17.5830000   18.7400000  
O 12.2540000   18.7750000   18.6860000  
H 12.3370000   21.1320000   23.7060000  
H 12.8940000   21.3290000   25.5580000  
H 16.2630000   19.7330000   23.1590000  
H 14.9870000   16.7470000   19.1780000  
H 12.8540000   18.5440000   17.9350000  
C 16.4750000   17.9490000   21.1030000  
C 16.8270000   17.2720000   22.2960000  
C 18.0940000   16.7000000   22.5400000  
C 19.0880000   16.6680000   21.5100000  
C 18.7790000   17.3040000   20.2690000  
C 17.5280000   17.9850000   20.1250000  
C 15.9160000   16.7210000   23.3110000  
C 16.6910000   15.9350000   24.1730000  
N 18.0640000   15.9280000   23.6940000  
O 14.7380000   15.3040000   25.4450000  
C 16.1070000   15.2520000   25.3360000  
O 16.7770000   14.7060000   26.1580000  
O 19.6110000   17.2520000   19.2300000  
O 17.3020000   18.6260000   18.9200000  
H 14.9050000   16.9840000   23.5120000  
H 14.4820000   15.7910000   24.6470000  
H 18.9020000   15.5350000   24.1080000  
H 19.1260000   17.7190000   18.5650000  
H 16.4070000   19.0460000   18.9050000  
C 20.2990000   15.8640000   21.8400000  
C 20.5810000   14.6920000   21.1420000  
C 21.6710000   13.9170000   21.3740000  
C 22.5850000   14.1820000   22.3800000  
C 22.3150000   15.3580000   23.1790000  
C 21.1770000   16.1990000   22.8840000  
C 19.8060000   14.0430000   20.0860000  
C 20.5930000   13.0180000   19.6120000  
N 21.7720000   12.8980000   20.4350000  
O 19.3630000   12.4950000   17.5380000  
C 20.2840000   12.1200000   18.4900000  
O 20.9470000   11.0890000   18.2530000  
O 23.3150000   15.8960000   24.0430000  
O 20.9860000   17.4040000   23.5490000  
H 18.8020000   14.3340000   19.7250000  
H 19.1080000   13.3970000   17.8760000  
H 22.4080000   12.1370000   20.4350000  
H 22.9640000   16.7920000   24.2550000  
H 20.2000000   17.9200000   23.1980000  
H 23.5840000   13.6560000   22.4320000  
