76
001 
C 10.6900000   23.9430000   22.2890000  
C  9.8800000   23.7460000   21.0280000  
C 10.0670000   22.6110000   20.3000000  
C 10.9870000   21.5570000   20.5780000  
C 11.8590000   21.7130000   21.7200000  
C 11.7420000   22.8410000   22.4860000  
C  9.4820000   22.2970000   19.0190000  
C 10.0400000   21.1020000   18.6960000  
N 10.9930000   20.6290000   19.6510000  
O  8.7590000   20.8260000   16.6470000  
C  9.8000000   20.4150000   17.4670000  
O 10.4200000   19.4390000   17.1670000  
O 12.4830000   22.9750000   23.6030000  
O 10.4740000   24.8870000   23.0650000  
H  9.1420000   24.5000000   20.8260000  
H  8.8420000   22.8810000   18.4250000  
H  8.3670000   21.5040000   17.2660000  
H 12.9630000   22.1830000   23.7980000  
C 12.9690000   20.7780000   21.9070000  
C 14.0020000   20.5730000   20.9930000  
C 14.8140000   19.4940000   21.0580000  
C 14.7860000   18.4840000   22.0670000  
C 13.8270000   18.7400000   23.0540000  
C 12.8910000   19.7970000   22.9080000  
C 14.0920000   21.2360000   19.7360000  
C 15.1580000   20.5410000   19.1140000  
N 15.5800000   19.4830000   19.9480000  
O 15.0530000   21.7220000   16.9990000  
C 15.6890000   20.7350000   17.7390000  
O 16.5860000   20.0820000   17.1730000  
O 13.6660000   17.8010000   24.0110000  
O 12.0400000   19.9950000   23.9160000  
H 13.5390000   22.1240000   19.3670000  
H 14.2300000   21.7920000   17.5120000  
H 16.3540000   18.8500000   19.8310000  
H 14.3590000   17.1350000   23.9240000  
H 11.8900000   19.1350000   24.4060000  
C 15.7840000   17.3720000   22.1920000  
C 17.1680000   17.6500000   22.0130000  
C 18.0560000   16.5880000   22.1000000  
C 17.8010000   15.2390000   22.3300000  
C 16.3850000   14.9740000   22.4410000  
C 15.4220000   15.9820000   22.3870000  
C 17.8820000   18.8710000   21.8090000  
C 19.2490000   18.4950000   21.8420000  
N 19.3210000   17.1060000   21.9880000  
O 20.1440000   20.6650000   21.3250000  
C 20.4030000   19.4160000   21.7170000  
O 21.5060000   18.9580000   21.9230000  
O 15.9420000   13.7020000   22.6850000  
O 14.1360000   15.6080000   22.3160000  
H 17.4910000   19.9060000   21.6810000  
H 19.2140000   20.6260000   21.1500000  
H 20.1850000   16.5970000   22.0840000  
H 14.9670000   13.6740000   22.6500000  
H 13.7400000   16.3600000   21.8150000  
C 18.8690000   14.2040000   22.5000000  
C 19.8170000   14.1510000   23.5490000  
C 20.7690000   13.1250000   23.6400000  
C 20.9190000   12.1770000   22.6110000  
C 19.9410000   12.1670000   21.5810000  
C 18.9760000   13.2200000   21.4930000  
C 20.0670000   14.9940000   24.7220000  
C 21.2120000   14.4980000   25.3680000  
N 21.6310000   13.3860000   24.6440000  
O 21.4960000   16.4350000   26.7480000  
C 21.9420000   15.2860000   26.2850000  
O 23.0540000   15.0120000   26.6990000  
O 19.9410000   11.2480000   20.5500000  
O 18.0360000   13.1050000   20.4730000  
H 19.5450000   15.8900000   25.0200000  
H 20.6700000   16.5330000   26.3030000  
H 22.5030000   12.9340000   24.8520000  
H 19.3250000   11.5070000   19.8460000  
H 17.3490000   13.7840000   20.5190000  
H 21.6350000   11.3990000   22.7570000  
