76
001 
C 10.1540000   13.7190000   18.9540000  
C 10.9930000   12.6800000   18.3560000  
C 12.3670000   12.6990000   18.4670000  
C 13.0650000   13.6620000   19.1960000  
C 12.3530000   14.7840000   19.8070000  
C 10.9390000   14.7930000   19.6020000  
C 13.3690000   11.8450000   18.0160000  
C 14.6160000   12.3370000   18.4800000  
N 14.3960000   13.4740000   19.2530000  
O 15.9030000   10.4720000   17.6860000  
C 15.9320000   11.6050000   18.3400000  
O 16.9360000   11.9630000   18.8430000  
O 10.1450000   15.7000000   20.1700000  
O  8.9420000   13.6040000   18.9620000  
H 10.5180000   11.7830000   18.0450000  
H 13.2270000   10.9400000   17.4880000  
H 15.0070000   10.4700000   17.4220000  
H  9.3020000   15.3210000   20.2140000  
C 13.1200000   15.8650000   20.4280000  
C 13.5290000   16.9650000   19.6410000  
C 14.3760000   17.9650000   20.1390000  
C 14.8530000   17.9610000   21.4380000  
C 14.4230000   16.8040000   22.2570000  
C 13.5140000   15.8120000   21.7200000  
C 13.4660000   17.2580000   18.2730000  
C 14.2930000   18.3470000   18.0020000  
N 14.7710000   18.8380000   19.2330000  
O 13.9390000   18.3300000   15.6150000  
C 14.4310000   19.0160000   16.6440000  
O 15.1340000   19.9790000   16.4240000  
O 14.8790000   16.5820000   23.4730000  
O 13.1660000   14.6010000   22.3530000  
H 12.9240000   16.6620000   17.5480000  
H 13.6640000   17.4400000   15.9030000  
H 15.2690000   19.7510000   19.4250000  
H 15.4830000   17.2910000   23.7260000  
H 12.5610000   14.2380000   21.7610000  
C 15.9740000   18.9050000   21.9160000  
C 15.6980000   19.8110000   22.9220000  
C 16.6570000   20.6780000   23.3570000  
C 17.9650000   20.6960000   22.8710000  
C 18.1730000   19.8890000   21.7480000  
C 17.2330000   18.9780000   21.2910000  
C 14.5470000   20.0100000   23.8350000  
C 14.8980000   21.1320000   24.6170000  
N 16.1970000   21.5640000   24.2880000  
O 12.8170000   21.2600000   25.7500000  
C 14.1040000   21.7630000   25.6750000  
O 14.4960000   22.5550000   26.4820000  
O 19.3420000   20.0170000   21.0500000  
O 17.4970000   18.1270000   20.1950000  
H 13.5760000   19.5580000   23.6390000  
H 12.7340000   20.7200000   24.9520000  
H 16.7740000   22.2200000   24.8170000  
H 19.2200000   19.3390000   20.3630000  
H 16.7160000   18.0390000   19.6740000  
C 18.9820000   21.7120000   23.2550000  
C 19.3950000   21.7510000   24.5570000  
C 20.4040000   22.5840000   24.9180000  
C 21.0050000   23.4840000   23.9880000  
C 20.4040000   23.6210000   22.7500000  
C 19.4180000   22.7170000   22.3390000  
C 19.2340000   20.8530000   25.6490000  
C 20.2050000   21.1330000   26.6290000  
N 20.9150000   22.2720000   26.1750000  
O 19.7750000   19.3120000   28.0940000  
C 20.5100000   20.4090000   27.9040000  
O 21.3290000   20.8680000   28.6710000  
O 20.7930000   24.5510000   21.8170000  
O 18.7940000   22.8410000   21.1130000  
H 18.6590000   19.9530000   25.6690000  
H 19.2420000   19.2150000   27.2980000  
H 21.7650000   22.6780000   26.6420000  
H 20.5700000   24.1590000   20.9460000  
H 18.3220000   22.0870000   20.8910000  
H 21.8320000   24.1450000   24.2850000  
