76
001 
C 11.6280000   21.9440000   26.9920000  
C 10.9420000   22.9430000   26.1060000  
C 11.1770000   22.7920000   24.7720000  
C 12.1450000   21.9860000   24.1640000  
C 12.8460000   21.0630000   24.9780000  
C 12.5890000   21.0520000   26.3590000  
C 10.6270000   23.5000000   23.7010000  
C 11.2180000   23.0380000   22.5510000  
N 12.2020000   22.1280000   22.8360000  
O  9.9180000   24.5830000   21.2270000  
C 10.9520000   23.6150000   21.2400000  
O 11.5480000   23.2110000   20.2430000  
O 13.2110000   20.2290000   27.1550000  
O 11.4640000   21.9480000   28.2240000  
H 10.2000000   23.5780000   26.5870000  
H  9.8660000   24.2580000   23.7740000  
H  9.6400000   24.5970000   22.1620000  
H 13.7710000   19.6980000   26.6030000  
C 13.7640000   20.1280000   24.3120000  
C 14.9280000   20.6310000   23.6960000  
C 15.6820000   19.8070000   23.0130000  
C 15.4290000   18.4040000   22.7770000  
C 14.2470000   17.9310000   23.3420000  
C 13.4430000   18.7750000   24.0780000  
C 15.3960000   21.9820000   23.4580000  
C 16.4120000   21.8230000   22.4720000  
N 16.6600000   20.4670000   22.3450000  
O 16.3690000   24.0390000   21.8860000  
C 17.1330000   22.8750000   21.7930000  
O 18.1350000   22.6350000   21.1560000  
O 13.8020000   16.6740000   22.9170000  
O 12.2830000   18.2520000   24.5850000  
H 15.1020000   22.9560000   23.7770000  
H 15.5000000   23.9500000   22.2790000  
H 17.3860000   20.0900000   21.7380000  
H 14.3560000   16.2660000   22.2840000  
H 12.3990000   17.2910000   24.7760000  
C 16.3030000   17.6620000   21.8490000  
C 17.0750000   16.5820000   22.3270000  
C 17.9470000   15.8760000   21.4860000  
C 18.1270000   16.1520000   20.1230000  
C 17.3670000   17.2240000   19.6180000  
C 16.4190000   17.9520000   20.4780000  
C 17.1180000   15.9100000   23.6550000  
C 17.9900000   14.8120000   23.4950000  
N 18.4510000   14.7420000   22.1630000  
O 17.8710000   14.1110000   25.8170000  
C 18.3930000   13.7940000   24.6270000  
O 19.0940000   12.8060000   24.4440000  
O 17.4070000   17.4840000   18.2650000  
O 15.4640000   18.7690000   19.8810000  
H 16.6590000   16.3250000   24.5970000  
H 17.2770000   14.8350000   25.6570000  
H 19.0920000   14.1050000   21.7750000  
H 17.1970000   18.4300000   18.0900000  
H 14.9850000   19.2530000   20.5620000  
C 18.9380000   15.2240000   19.2780000  
C 18.5740000   14.5810000   18.1060000  
C 19.4720000   14.0010000   17.2260000  
C 20.8180000   14.0440000   17.3750000  
C 21.1940000   14.4640000   18.6600000  
C 20.3360000   15.1510000   19.5650000  
C 17.1990000   14.5320000   17.4450000  
C 17.3500000   13.7800000   16.2650000  
N 18.7270000   13.4640000   16.1840000  
O 15.1850000   14.0460000   15.3870000  
C 16.3950000   13.5090000   15.1840000  
O 16.6100000   12.8400000   14.1860000  
O 22.5650000   14.3790000   18.8180000  
O 20.8670000   15.6980000   20.7380000  
H 16.2300000   14.9480000   17.8340000  
H 15.2280000   14.2720000   16.3580000  
H 19.1050000   12.9430000   15.4260000  
H 22.8100000   14.6950000   19.6950000  
H 20.1360000   16.0940000   21.2250000  
H 21.5050000   13.6500000   16.6250000  
