76
001 
C 16.5740000   14.8760000   28.1950000  
C 15.9740000   13.5040000   28.0600000  
C 15.8280000   12.9220000   26.8170000  
C 16.0070000   13.6580000   25.6510000  
C 16.2500000   15.0630000   25.6990000  
C 16.6080000   15.6140000   26.9210000  
C 15.3470000   11.6840000   26.3940000  
C 15.3360000   11.7530000   25.0030000  
N 15.6870000   13.0010000   24.5720000  
O 14.6200000    9.5450000   24.8070000  
C 15.0890000   10.5870000   24.1570000  
O 15.3380000   10.5670000   23.0080000  
O 16.8450000   16.9630000   27.1730000  
O 16.9910000   15.3690000   29.2400000  
H 15.8160000   12.8710000   28.9630000  
H 15.1460000   10.8650000   26.9590000  
H 14.3650000    9.8870000   25.6850000  
H 16.8900000   17.0900000   28.0860000  
C 16.1160000   15.9590000   24.5220000  
C 14.8910000   16.1040000   23.7970000  
C 14.7910000   16.8430000   22.6160000  
C 15.8940000   17.5210000   22.0620000  
C 17.1380000   17.2860000   22.7350000  
C 17.2230000   16.5240000   23.9380000  
C 13.5150000   15.6670000   24.0300000  
C 12.7360000   16.1260000   22.9340000  
N 13.5310000   16.8230000   22.0490000  
O 10.6430000   15.2700000   23.7460000  
C 11.2500000   16.0010000   22.8010000  
O 10.6280000   16.5030000   21.9010000  
O 18.3410000   17.8370000   22.3390000  
O 18.4170000   16.3830000   24.6240000  
H 13.0230000   15.0660000   24.8110000  
H 11.3410000   14.6650000   24.0420000  
H 13.1980000   17.1790000   21.1470000  
H 18.1760000   18.5690000   21.6750000  
H 19.1030000   16.8090000   24.1300000  
C 15.8190000   18.5550000   20.9600000  
C 16.1580000   19.9080000   21.1070000  
C 16.1110000   20.7730000   20.0480000  
C 15.5560000   20.4610000   18.7850000  
C 15.4250000   19.0800000   18.5380000  
C 15.4050000   18.1780000   19.6120000  
C 16.4550000   20.6990000   22.2770000  
C 16.3720000   21.9740000   21.8820000  
N 16.2350000   22.0570000   20.4930000  
O 16.7180000   22.8580000   24.1680000  
C 16.5160000   23.1530000   22.8870000  
O 16.5870000   24.3010000   22.5730000  
O 15.2910000   18.6130000   17.2600000  
O 15.0400000   16.8830000   19.3530000  
H 16.6250000   20.4080000   23.3220000  
H 16.9850000   21.8960000   24.2040000  
H 16.1220000   22.8500000   19.8720000  
H 14.9910000   17.7300000   17.4180000  
H 15.4060000   16.3390000   20.0830000  
C 15.4960000   21.4560000   17.6880000  
C 16.6360000   22.1930000   17.2660000  
C 16.5630000   23.1310000   16.2900000  
C 15.3500000   23.3270000   15.5970000  
C 14.1990000   22.6150000   15.9880000  
C 14.2500000   21.7320000   17.0730000  
C 17.9410000   22.2600000   17.8120000  
C 18.6120000   23.1550000   16.9510000  
N 17.7710000   23.6890000   15.9910000  
O 20.7880000   22.6790000   17.9940000  
C 20.1110000   23.3530000   16.9900000  
O 20.6690000   23.9200000   16.0740000  
O 12.9920000   22.8580000   15.3630000  
O 13.1310000   21.0450000   17.5520000  
H 18.3480000   21.7230000   18.6210000  
H 20.1450000   22.0660000   18.3530000  
H 17.9110000   24.2450000   15.1970000  
H 12.2290000   22.4470000   15.8620000  
H 13.2990000   20.5910000   18.3830000  
H 15.2970000   24.0830000   14.8570000  
