76
001 
C 12.0760000   17.8020000   15.2620000  
C 10.9710000   18.7750000   15.2940000  
C 10.6690000   19.2870000   16.5490000  
C 11.3820000   19.0130000   17.6890000  
C 12.5290000   18.1740000   17.7060000  
C 12.8870000   17.6080000   16.5110000  
C  9.6010000   20.0940000   16.9170000  
C  9.9070000   20.4900000   18.2500000  
N 11.0020000   19.7710000   18.7140000  
O  8.2610000   22.2240000   18.6180000  
C  9.2890000   21.5020000   19.0980000  
O  9.5710000   21.8050000   20.2600000  
O 14.0450000   16.7900000   16.3700000  
O 12.3010000   17.3150000   14.1900000  
H 10.4020000   19.0600000   14.4420000  
H  8.8740000   20.5770000   16.2290000  
H  8.1220000   21.9610000   17.6660000  
H 14.5230000   16.8120000   17.2300000  
C 13.3670000   18.0390000   18.9370000  
C 13.7250000   16.8060000   19.5580000  
C 14.3590000   16.7540000   20.7310000  
C 14.9220000   17.8990000   21.3420000  
C 14.7470000   19.1450000   20.6370000  
C 14.0630000   19.1510000   19.4290000  
C 13.4300000   15.4340000   19.2180000  
C 13.9130000   14.6410000   20.2620000  
N 14.5460000   15.4730000   21.2460000  
O 13.2120000   12.4990000   19.4000000  
C 13.8380000   13.1650000   20.3950000  
O 14.3150000   12.5770000   21.4000000  
O 15.4110000   20.1930000   21.1120000  
O 13.9320000   20.3800000   18.8030000  
H 13.2180000   14.9570000   18.2260000  
H 12.8770000   13.1890000   18.8380000  
H 14.8920000   15.2060000   22.1570000  
H 15.9560000   19.7280000   21.7890000  
H 14.1780000   20.9930000   19.4980000  
C 15.9700000   17.8670000   22.4290000  
C 17.3410000   18.2200000   22.1600000  
C 18.3060000   18.0730000   23.0980000  
C 18.0280000   17.6180000   24.4600000  
C 16.7450000   17.1020000   24.6610000  
C 15.6860000   17.2980000   23.6930000  
C 18.0850000   18.5870000   20.9720000  
C 19.4270000   18.6770000   21.3580000  
N 19.5650000   18.3310000   22.6860000  
O 20.3870000   19.5610000   19.4190000  
C 20.6600000   19.0950000   20.6140000  
O 21.8260000   18.9660000   20.9560000  
O 16.4310000   16.5010000   25.8550000  
O 14.4040000   16.8200000   23.8450000  
H 17.7420000   18.8290000   19.9630000  
H 19.4160000   19.5450000   19.3170000  
H 20.4470000   18.4010000   23.2520000  
H 15.5460000   16.0820000   25.7950000  
H 13.8640000   17.2900000   23.1420000  
C 19.1460000   17.6060000   25.4240000  
C 19.5400000   18.8550000   26.0920000  
C 20.5140000   18.8360000   27.0370000  
C 21.0340000   17.6630000   27.5880000  
C 20.7380000   16.4140000   27.0000000  
C 19.7680000   16.3820000   25.9350000  
C 19.0600000   20.1850000   25.8870000  
C 19.8060000   20.9310000   26.7270000  
N 20.7450000   20.1060000   27.4000000  
O 18.5030000   22.8300000   26.3070000  
C 19.6140000   22.3850000   26.9160000  
O 20.2790000   23.1560000   27.6260000  
O 21.2970000   15.3350000   27.5070000  
O 19.5480000   15.1550000   25.2820000  
H 18.1390000   20.4870000   25.3660000  
H 17.9910000   21.9880000   26.0780000  
H 21.3590000   20.3590000   28.1590000  
H 20.7970000   14.5870000   27.0950000  
H 19.2160000   15.3710000   24.3980000  
H 21.7540000   17.6720000   28.3670000  
