76
001 
C 12.0620000   21.3720000   16.1490000  
C 10.6790000   21.2250000   16.4730000  
C 10.3030000   20.5460000   17.6420000  
C 11.1860000   20.0560000   18.5820000  
C 12.5530000   20.2040000   18.2970000  
C 13.0160000   20.8610000   17.1620000  
C  8.9860000   20.0760000   17.9820000  
C  9.1920000   19.4430000   19.2510000  
N 10.5580000   19.3550000   19.5080000  
O  6.8920000   18.8990000   19.7520000  
C  8.1720000   18.7130000   20.0970000  
O  8.4980000   17.9360000   21.0230000  
O 14.3440000   21.1410000   16.9160000  
O 12.5080000   21.8000000   15.0840000  
H  9.9910000   21.6580000   15.7690000  
H  8.0660000   20.2980000   17.5460000  
H  6.8930000   19.4620000   18.9590000  
H 14.8310000   21.0540000   17.7840000  
C 13.6040000   19.6090000   19.1730000  
C 13.6730000   18.2260000   19.4060000  
C 14.5480000   17.7290000   20.3250000  
C 15.4630000   18.5120000   21.1510000  
C 15.3650000   19.9260000   20.8940000  
C 14.4690000   20.4670000   19.9660000  
C 13.1070000   17.1920000   18.6290000  
C 13.6230000   16.0140000   19.2220000  
N 14.5340000   16.3230000   20.2540000  
O 12.6020000   14.5500000   17.6610000  
C 13.1840000   14.6790000   18.9000000  
O 13.4640000   13.6700000   19.5400000  
O 16.1070000   20.6870000   21.7220000  
O 14.3730000   21.8580000   19.8440000  
H 12.1480000   17.1430000   18.1560000  
H 12.4190000   15.4480000   17.3890000  
H 14.9890000   15.6800000   20.8370000  
H 16.7560000   20.2040000   22.2830000  
H 15.1200000   22.2050000   20.3960000  
C 16.3730000   17.9250000   22.1420000  
C 17.7030000   17.9910000   21.7710000  
C 18.6400000   17.6120000   22.7260000  
C 18.3770000   16.9960000   23.9400000  
C 16.9710000   16.9470000   24.3260000  
C 15.9890000   17.4070000   23.4060000  
C 18.3880000   18.4130000   20.6070000  
C 19.7340000   18.1200000   20.8470000  
N 19.8780000   17.7050000   22.1660000  
O 20.7080000   18.7590000   18.7250000  
C 20.9400000   18.2580000   19.9260000  
O 22.0280000   17.8720000   20.2250000  
O 16.6510000   16.4600000   25.5450000  
O 14.6800000   17.3440000   23.6580000  
H 17.9920000   18.7370000   19.6240000  
H 19.7460000   18.9370000   18.6870000  
H 20.7790000   17.4970000   22.5460000  
H 15.7220000   16.4050000   25.6400000  
H 14.1100000   17.7370000   22.9970000  
C 19.4750000   16.6420000   24.8730000  
C 19.7920000   17.4890000   25.9670000  
C 20.7570000   17.1620000   26.8840000  
C 21.3720000   15.8920000   26.7940000  
C 21.0830000   15.0160000   25.7280000  
C 20.0710000   15.3700000   24.7780000  
C 19.1530000   18.7130000   26.4360000  
C 19.6980000   19.0570000   27.6260000  
N 20.6420000   18.0390000   27.9400000  
O 18.2500000   20.9390000   28.1300000  
C 19.3270000   20.2310000   28.4590000  
O 19.8940000   20.3940000   29.5070000  
O 21.7780000   13.7900000   25.5120000  
O 19.7250000   14.5170000   23.7990000  
H 18.4300000   19.3350000   25.8650000  
H 17.9990000   20.6500000   27.2570000  
H 21.2740000   17.9200000   28.7020000  
H 21.3830000   13.4500000   24.7010000  
H 19.1230000   15.0130000   23.1810000  
H 21.9170000   15.5230000   27.6830000  
