76
001 
C 12.5570000   18.0300000   28.3410000  
C 13.6150000   18.1360000   29.3950000  
C 14.9440000   18.1640000   28.9620000  
C 15.3950000   18.1140000   27.6320000  
C 14.4050000   18.0790000   26.5850000  
C 13.0360000   17.9330000   26.9510000  
C 16.0930000   18.3730000   29.8070000  
C 17.0970000   18.5700000   28.8890000  
N 16.6510000   18.4570000   27.5790000  
O 18.7890000   19.0600000   30.4540000  
C 18.5020000   18.9740000   29.1500000  
O 19.2470000   19.1570000   28.2200000  
O 11.9530000   17.7890000   26.0460000  
O 11.3540000   18.0940000   28.5960000  
H 13.2750000   18.2640000   30.3840000  
H 16.0710000   18.6010000   30.8830000  
H 17.9720000   18.8280000   30.9620000  
H 11.1560000   17.9470000   26.6520000  
C 14.9210000   18.0580000   25.2060000  
C 14.9110000   16.9170000   24.4240000  
C 15.3540000   16.9770000   23.0900000  
C 15.9190000   18.1050000   22.5120000  
C 15.8590000   19.3110000   23.2570000  
C 15.3600000   19.2750000   24.5690000  
C 14.6340000   15.5810000   24.7720000  
C 14.9580000   14.8020000   23.6360000  
N 15.3760000   15.6710000   22.6060000  
O 14.1340000   12.6910000   24.5360000  
C 14.5680000   13.4060000   23.4470000  
O 14.7590000   12.8520000   22.3700000  
O 16.1550000   20.5280000   22.6530000  
O 15.2860000   20.4740000   25.1910000  
H 14.2720000   15.2270000   25.7410000  
H 14.1130000   13.3110000   25.2490000  
H 15.5100000   15.3990000   21.6260000  
H 16.3120000   20.4140000   21.7090000  
H 15.5520000   21.1670000   24.4600000  
C 16.1970000   18.1040000   21.0300000  
C 15.4150000   18.8600000   20.1670000  
C 15.6690000   18.8050000   18.8500000  
C 16.7630000   18.2090000   18.2800000  
C 17.6360000   17.4730000   19.1140000  
C 17.3180000   17.4860000   20.4940000  
C 14.0720000   19.4440000   20.2560000  
C 13.6170000   19.6630000   18.9610000  
N 14.6060000   19.2750000   18.0670000  
O 11.4820000   20.1940000   19.6260000  
C 12.2850000   20.1150000   18.6080000  
O 11.9170000   20.3980000   17.4700000  
O 18.7360000   16.7370000   18.5950000  
O 18.0650000   16.7340000   21.2980000  
H 13.6390000   19.8700000   21.1590000  
H 11.9150000   19.9830000   20.4700000  
H 14.5860000   19.3310000   17.0330000  
H 18.9020000   16.0120000   19.2270000  
H 17.7290000   16.9410000   22.2320000  
C 16.8160000   18.0400000   16.8040000  
C 17.4080000   19.0980000   16.0130000  
C 17.4600000   19.0730000   14.6350000  
C 16.9940000   17.9340000   13.9270000  
C 16.3610000   16.9050000   14.6880000  
C 16.2510000   16.9270000   16.1110000  
C 18.0540000   20.2990000   16.4490000  
C 18.5570000   20.8800000   15.3190000  
N 18.2580000   20.0810000   14.1520000  
O 19.4480000   22.6660000   16.5020000  
C 19.3950000   22.0890000   15.3040000  
O 19.9840000   22.5650000   14.3450000  
O 15.6120000   15.9400000   14.0340000  
O 15.5350000   15.8880000   16.7530000  
H 18.1730000   20.6550000   17.4200000  
H 19.0240000   22.0040000   17.0430000  
H 18.3890000   20.2550000   13.1670000  
H 15.2550000   15.3640000   14.7250000  
H 15.3700000   16.0650000   17.7170000  
H 16.9050000   17.9640000   12.8070000  
