76
001 
C 17.2790000   16.5640000   28.6920000  
C 16.4940000   15.4550000   29.1210000  
C 15.4370000   15.0220000   28.2920000  
C 15.2500000   15.4600000   26.9750000  
C 16.1130000   16.5120000   26.4410000  
C 17.0550000   17.0330000   27.3160000  
C 14.5210000   13.9620000   28.4400000  
C 13.7710000   13.9070000   27.2730000  
N 14.2580000   14.8240000   26.3280000  
O 12.4890000   12.1270000   28.1400000  
C 12.7540000   12.8760000   27.0560000  
O 12.2180000   12.7870000   25.9740000  
O 17.9690000   17.9540000   26.9600000  
O 18.0990000   17.1530000   29.3270000  
H 16.6430000   15.1640000   30.1510000  
H 14.4560000   13.3550000   29.3110000  
H 13.0060000   12.5910000   28.8290000  
H 18.4650000   18.2160000   27.8080000  
C 15.9700000   16.9680000   25.0730000  
C 14.9550000   17.8430000   24.6490000  
C 14.8900000   18.2090000   23.3280000  
C 15.7740000   18.0080000   22.3510000  
C 16.8460000   17.2490000   22.7870000  
C 16.9810000   16.7710000   24.0950000  
C 13.7510000   18.2580000   25.3020000  
C 13.1170000   19.1040000   24.4160000  
N 13.7890000   19.0740000   23.1340000  
O 11.4320000   19.7080000   25.9620000  
C 11.8930000   19.9560000   24.7350000  
O 11.2710000   20.6490000   23.9560000  
O 17.9080000   17.1510000   21.8390000  
O 18.0310000   15.9500000   24.4160000  
H 13.4190000   18.1760000   26.2960000  
H 12.0560000   19.0690000   26.3460000  
H 13.5850000   19.6550000   22.3090000  
H 17.5860000   17.5450000   21.0330000  
H 17.8980000   15.6090000   25.2810000  
C 15.6100000   18.5710000   21.0090000  
C 16.5650000   19.5210000   20.5860000  
C 16.4900000   20.0950000   19.3580000  
C 15.4650000   19.7280000   18.3610000  
C 14.5190000   18.7700000   18.7850000  
C 14.5600000   18.2170000   20.1100000  
C 17.8260000   20.0030000   21.1340000  
C 18.4430000   20.7500000   20.1440000  
N 17.6230000   20.8040000   18.9990000  
O 20.1870000   21.6750000   21.4760000  
C 19.6590000   21.5400000   20.2510000  
O 20.0480000   22.0890000   19.3090000  
O 13.5530000   18.3770000   17.8220000  
O 13.5510000   17.2820000   20.4280000  
H 18.1770000   19.8830000   22.1500000  
H 19.5000000   21.1970000   21.9440000  
H 17.9190000   21.2610000   18.1620000  
H 13.1830000   17.5360000   18.0440000  
H 13.7980000   16.6110000   21.0960000  
C 15.5360000   20.2660000   16.9890000  
C 16.2630000   19.6190000   16.0010000  
C 16.5600000   20.2670000   14.8100000  
C 16.0360000   21.4880000   14.4770000  
C 15.2730000   22.1530000   15.4350000  
C 15.0250000   21.5710000   16.7270000  
C 16.8900000   18.3230000   15.9660000  
C 17.5060000   18.2160000   14.6950000  
N 17.3640000   19.4760000   14.0640000  
O 18.1460000   15.9230000   15.0240000  
C 18.2910000   17.0460000   14.2730000  
O 18.9800000   17.0660000   13.2490000  
O 14.8430000   23.3830000   15.0630000  
O 14.4440000   22.3740000   17.6730000  
H 16.8410000   17.4840000   16.6950000  
H 17.6630000   16.1030000   15.8580000  
H 17.6930000   19.6820000   13.1630000  
H 14.2970000   23.7290000   15.7320000  
H 14.6330000   21.9670000   18.5210000  
H 16.2390000   21.9500000   13.5360000  
