76
001 
C 11.5730000   12.4140000   19.6910000  
C 12.0200000   11.2460000   20.4620000  
C 13.1070000   11.3550000   21.2730000  
C 13.7640000   12.5950000   21.6050000  
C 13.2920000   13.7830000   20.8540000  
C 12.2690000   13.7220000   19.8720000  
C 13.7370000   10.4010000   22.0660000  
C 14.7910000   11.1040000   22.7410000  
N 14.8500000   12.4810000   22.4130000  
O 15.4700000    9.2250000   23.9300000  
C 15.8280000   10.4920000   23.6320000  
O 16.7930000   11.0070000   24.1540000  
O 11.8200000   14.7690000   19.0730000  
O 10.5800000   12.3410000   19.0730000  
H 11.5800000   10.3060000   20.2630000  
H 13.5110000    9.3640000   22.1110000  
H 14.6910000    9.0160000   23.3020000  
H 11.0270000   14.4640000   18.7030000  
C 13.9700000   15.0470000   21.1410000  
C 14.8110000   15.6060000   20.1990000  
C 15.4710000   16.7080000   20.5480000  
C 15.4370000   17.3700000   21.7380000  
C 14.4780000   16.8210000   22.6930000  
C 13.6910000   15.6860000   22.3360000  
C 15.3790000   15.1680000   18.9760000  
C 16.4000000   16.1000000   18.6420000  
N 16.3160000   17.1390000   19.5590000  
O 17.2330000   14.9760000   16.6990000  
C 17.1060000   16.1480000   17.3340000  
O 17.5240000   17.1530000   16.8380000  
O 14.0690000   17.4260000   23.8440000  
O 12.7290000   15.1600000   23.1850000  
H 14.9070000   14.4320000   18.2850000  
H 16.7550000   14.3320000   17.2890000  
H 16.9760000   17.9210000   19.6000000  
H 14.7670000   18.1570000   23.9350000  
H 12.0760000   14.6960000   22.6550000  
C 16.2860000   18.5990000   22.0830000  
C 16.0160000   19.8580000   21.5280000  
C 16.7600000   20.9720000   21.8480000  
C 17.7600000   20.9510000   22.9050000  
C 17.9910000   19.6610000   23.4660000  
C 17.3340000   18.5570000   23.0230000  
C 15.0370000   20.3770000   20.6150000  
C 15.4020000   21.6640000   20.2990000  
N 16.4740000   22.0290000   21.0530000  
O 13.5070000   21.9610000   19.0610000  
C 14.5520000   22.6210000   19.5270000  
O 14.7210000   23.8600000   19.4200000  
O 18.8810000   19.4890000   24.4600000  
O 17.6900000   17.3280000   23.5700000  
H 14.2150000   19.8610000   20.2040000  
H 13.6310000   21.0600000   19.3350000  
H 16.8750000   22.9540000   21.1930000  
H 18.8040000   18.4830000   24.6100000  
H 16.9790000   16.6980000   23.4340000  
C 18.5030000   22.2750000   23.1890000  
C 17.8310000   23.4750000   23.3740000  
C 18.5220000   24.6540000   23.5170000  
C 19.9150000   24.7310000   23.3900000  
C 20.6200000   23.5770000   23.0710000  
C 19.9320000   22.3350000   22.9600000  
C 16.4100000   23.8410000   23.3920000  
C 16.3840000   25.2210000   23.5620000  
N 17.6790000   25.7320000   23.6940000  
O 14.0610000   25.3110000   23.0870000  
C 15.0980000   25.9990000   23.6500000  
O 14.9890000   27.1740000   24.0170000  
O 21.9070000   23.7440000   22.8010000  
O 20.5740000   21.1380000   22.8210000  
H 15.5800000   23.1280000   23.4490000  
H 14.4530000   24.6200000   22.5400000  
H 18.0100000   26.6310000   23.9120000  
H 22.2530000   23.1250000   22.1680000  
H 20.0360000   20.4250000   23.2840000  
H 20.5030000   25.6270000   23.6010000  
