76
001 
C 15.4000000   16.4650000   29.0080000  
C 15.7830000   15.0860000   29.0840000  
C 16.0950000   14.4320000   27.9210000  
C 16.1700000   15.0250000   26.6640000  
C 15.9320000   16.4100000   26.4980000  
C 15.5540000   17.1210000   27.6400000  
C 16.2910000   13.0370000   27.7010000  
C 16.4740000   12.8580000   26.3840000  
N 16.3980000   14.1180000   25.7640000  
O 17.0160000   10.5570000   26.5820000  
C 16.6680000   11.5320000   25.7190000  
O 16.5790000   11.3420000   24.5330000  
O 15.0320000   18.3510000   27.6200000  
O 14.9880000   17.0490000   30.0270000  
H 15.8440000   14.5670000   30.0670000  
H 16.2170000   12.3040000   28.4590000  
H 17.0460000   10.9800000   27.4890000  
H 14.6210000   18.6520000   28.4560000  
C 16.0150000   16.9510000   25.1000000  
C 14.8550000   16.8480000   24.2460000  
C 14.9530000   17.3370000   22.9540000  
C 16.1720000   17.7810000   22.3440000  
C 17.1960000   17.9780000   23.2590000  
C 17.2020000   17.5240000   24.5620000  
C 13.5180000   16.3110000   24.3990000  
C 12.9550000   16.3970000   23.1260000  
N 13.8490000   17.0830000   22.2090000  
O 10.8620000   15.6530000   23.8670000  
C 11.5170000   16.1720000   22.8420000  
O 10.9620000   16.4440000   21.8010000  
O 18.3580000   18.5730000   22.7640000  
O 18.2730000   17.5410000   25.4380000  
H 13.0880000   15.8580000   25.2870000  
H 11.3790000   15.7960000   24.6740000  
H 13.6800000   17.4190000   21.2930000  
H 18.2960000   18.5630000   21.7790000  
H 19.0520000   17.5830000   24.9200000  
C 16.3170000   18.3890000   20.9910000  
C 15.6350000   19.5730000   20.7280000  
C 15.6550000   20.1070000   19.4250000  
C 16.1230000   19.4060000   18.3000000  
C 16.7170000   18.1350000   18.5120000  
C 16.7830000   17.6730000   19.8370000  
C 14.8510000   20.4880000   21.5210000  
C 14.3690000   21.4360000   20.6450000  
N 14.9300000   21.2240000   19.3450000  
O 12.9270000   22.6640000   22.1990000  
C 13.4870000   22.6180000   20.9680000  
O 13.1810000   23.4940000   20.1680000  
O 17.1920000   17.3140000   17.4910000  
O 17.2510000   16.4370000   20.0230000  
H 14.7670000   20.5150000   22.6880000  
H 13.1580000   21.7440000   22.4860000  
H 14.8660000   21.8170000   18.5750000  
H 17.1710000   16.3790000   17.8430000  
H 17.1650000   16.0530000   20.9130000  
C 16.0180000   20.0600000   16.9350000  
C 16.8470000   21.1380000   16.6240000  
C 16.7750000   21.8200000   15.4440000  
C 16.0070000   21.4110000   14.3340000  
C 15.1540000   20.2850000   14.5740000  
C 15.1330000   19.6380000   15.9170000  
C 18.0110000   21.6540000   17.2890000  
C 18.5980000   22.6470000   16.5680000  
N 17.8130000   22.7970000   15.4180000  
O 20.1180000   23.1410000   18.3130000  
C 19.8690000   23.3380000   17.0080000  
O 20.5620000   24.1190000   16.3160000  
O 14.2850000   19.8590000   13.5940000  
O 14.3320000   18.5180000   16.1070000  
H 18.3480000   21.3270000   18.2540000  
H 19.6640000   22.3090000   18.4930000  
H 17.9460000   23.4660000   14.6290000  
H 13.8130000   19.0580000   13.8610000  
H 14.7660000   17.9370000   16.7880000  
H 16.0240000   21.9150000   13.3400000  
