76
010 
C  8.4860000   18.2630000   24.6840000  
C  8.1070000   16.8170000   24.5310000  
C  9.0390000   15.9200000   24.0950000  
C 10.3270000   16.2050000   23.7250000  
C 10.7240000   17.6050000   23.7120000  
C  9.9110000   18.5770000   24.2930000  
C  8.9410000   14.5070000   23.9720000  
C 10.1610000   14.1070000   23.4400000  
N 10.9960000   15.1830000   23.3160000  
O  9.4320000   11.7740000   23.2110000  
C 10.4550000   12.6630000   23.0420000  
O 11.5190000   12.3520000   22.5020000  
O 10.1600000   19.9140000   24.3570000  
O  7.7200000   19.1440000   25.1180000  
H  7.0720000   16.5490000   24.8570000  
H  8.0400000   13.9490000   24.2590000  
H  8.8250000   12.0660000   23.9340000  
H 11.1110000   20.0400000   24.2170000  
C 12.0780000   17.9700000   23.2520000  
C 12.2060000   18.5250000   21.9460000  
C 13.4580000   18.6510000   21.4800000  
C 14.6920000   18.3320000   22.0290000  
C 14.5860000   17.8840000   23.3970000  
C 13.2660000   17.7640000   24.0460000  
C 11.2480000   18.8670000   20.9080000  
C 12.0370000   19.1280000   19.7670000  
N 13.3950000   19.1370000   20.1680000  
O 10.2380000   19.7250000   18.3500000  
C 11.5700000   19.5820000   18.4610000  
O 12.3080000   19.7190000   17.5350000  
O 15.6810000   17.5900000   24.1300000  
O 13.1280000   17.3180000   25.3380000  
H 10.1550000   18.9080000   20.8900000  
H  9.7680000   19.2010000   19.0550000  
H 14.1980000   19.4880000   19.5560000  
H 16.4400000   17.6780000   23.6120000  
H 13.9600000   16.9500000   25.5300000  
C 16.0210000   18.4550000   21.3540000  
C 16.6780000   19.7340000   21.1590000  
C 17.9740000   19.6420000   20.7070000  
C 18.7360000   18.4940000   20.3500000  
C 17.9320000   17.3260000   20.4160000  
C 16.6880000   17.2160000   20.9920000  
C 16.4430000   21.0780000   21.6020000  
C 17.6010000   21.8120000   21.2530000  
N 18.5750000   20.9000000   20.7550000  
O 16.8590000   23.7450000   22.4950000  
C 17.8850000   23.1630000   21.7570000  
O 18.9180000   23.7760000   21.6580000  
O 18.4990000   16.1960000   19.8680000  
O 16.0760000   16.0800000   21.1940000  
H 15.4990000   21.5340000   21.9810000  
H 16.1220000   23.0680000   22.3850000  
H 19.5500000   21.1010000   20.5410000  
H 19.3130000   16.5120000   19.4810000  
H 16.7030000   15.4910000   20.7720000  
C 20.1240000   18.5820000   19.8050000  
C 21.2420000   18.0130000   20.5010000  
C 22.5030000   18.2790000   20.0280000  
C 22.7240000   19.0650000   18.8800000  
C 21.6480000   19.3780000   18.0640000  
C 20.3150000   19.1070000   18.5120000  
C 21.3120000   17.3210000   21.7250000  
C 22.7140000   17.2760000   22.0430000  
N 23.4100000   17.9030000   20.9850000  
O 22.2900000   16.0040000   23.9970000  
C 23.2100000   16.6520000   23.2700000  
O 24.3390000   16.6780000   23.6820000  
O 21.9040000   20.2680000   17.0480000  
O 19.2520000   19.5470000   17.7820000  
H 20.5420000   16.8290000   22.3270000  
H 21.5410000   16.0490000   23.3280000  
H 24.4110000   17.9660000   20.9910000  
H 21.1040000   20.5170000   16.6240000  
H 18.3850000   19.1810000   18.1440000  
H 23.7220000   19.2350000   18.6050000  
