76
010 
C 10.4210000   18.3520000   27.3600000  
C  9.1620000   18.1480000   26.7240000  
C  9.1710000   17.8520000   25.3960000  
C 10.3350000   17.7980000   24.5580000  
C 11.6250000   18.0510000   25.1400000  
C 11.7090000   18.2980000   26.5090000  
C  8.1310000   17.6890000   24.4610000  
C  8.7110000   17.5550000   23.2130000  
N 10.0610000   17.7070000   23.2280000  
O  6.6630000   17.1660000   22.0930000  
C  7.9730000   17.2640000   21.9600000  
O  8.5070000   17.2480000   20.8710000  
O 12.9200000   18.6390000   27.0350000  
O 10.4830000   18.6070000   28.5350000  
H  8.2830000   18.1770000   27.3100000  
H  7.1040000   17.5730000   24.8290000  
H  6.5050000   17.2790000   23.0370000  
H 13.5560000   18.5920000   26.2850000  
C 12.7990000   18.0280000   24.2610000  
C 13.4980000   19.2630000   24.0600000  
C 14.5330000   19.3850000   23.1840000  
C 15.1010000   18.3040000   22.4780000  
C 14.4010000   17.0620000   22.5700000  
C 13.3300000   16.9430000   23.5170000  
C 13.1730000   20.5860000   24.4640000  
C 14.2410000   21.4390000   24.0460000  
N 15.1380000   20.6220000   23.3160000  
O 13.6300000   23.4780000   24.9660000  
C 14.5080000   22.8480000   24.2280000  
O 15.5020000   23.4070000   23.7380000  
O 14.8350000   15.9950000   21.8830000  
O 12.7030000   15.7560000   23.6200000  
H 12.3970000   20.8480000   25.1170000  
H 12.8630000   22.9220000   24.8670000  
H 16.0220000   20.9530000   22.8670000  
H 15.2170000   16.2830000   21.0640000  
H 13.3150000   15.1090000   23.3510000  
C 16.2200000   18.4700000   21.5420000  
C 17.3800000   17.7200000   21.7100000  
C 18.4230000   17.8920000   20.8960000  
C 18.3930000   18.6020000   19.6500000  
C 17.2520000   19.3850000   19.5530000  
C 16.2130000   19.4050000   20.4800000  
C 17.8110000   16.9720000   22.7890000  
C 19.0990000   16.5030000   22.4580000  
N 19.4790000   17.0150000   21.1960000  
O 19.3310000   15.3930000   24.5660000  
C 19.8820000   15.6580000   23.3900000  
O 20.9820000   15.2290000   23.0680000  
O 17.1200000   20.0610000   18.3570000  
O 15.1080000   20.1830000   20.3080000  
H 17.2230000   16.7770000   23.7460000  
H 18.6970000   16.1770000   24.7260000  
H 20.2850000   16.8140000   20.6140000  
H 17.7080000   19.6350000   17.7300000  
H 15.1390000   20.4190000   19.3580000  
C 19.5180000   18.6100000   18.6250000  
C 19.7910000   17.4320000   17.8480000  
C 20.7470000   17.4330000   16.8360000  
C 21.5980000   18.5260000   16.6750000  
C 21.4600000   19.6820000   17.4200000  
C 20.4640000   19.6730000   18.4490000  
C 18.9940000   16.3080000   17.5740000  
C 19.5540000   15.5840000   16.4860000  
N 20.6320000   16.3670000   16.0310000  
O 18.0280000   13.7370000   16.6860000  
C 19.0920000   14.2550000   15.9800000  
O 19.6760000   13.7370000   15.0180000  
O 22.2770000   20.8090000   17.1470000  
O 20.3100000   20.7070000   19.3020000  
H 18.0950000   16.0000000   18.1120000  
H 17.9550000   14.3290000   17.4850000  
H 21.2060000   16.2310000   15.2600000  
H 22.2500000   21.3180000   18.0020000  
H 19.3740000   20.7390000   19.5690000  
H 22.1340000   18.5750000   15.6900000  
