76
010 
C 18.7750000   18.6260000   28.4780000  
C 18.3980000   17.4600000   29.2720000  
C 17.5940000   16.4780000   28.7370000  
C 17.1590000   16.5420000   27.3860000  
C 17.5490000   17.6540000   26.5640000  
C 18.3570000   18.6620000   27.0400000  
C 17.2170000   15.1620000   29.1720000  
C 16.4410000   14.6400000   28.1100000  
N 16.4600000   15.5080000   27.0460000  
O 16.0630000   12.5300000   29.1240000  
C 15.7350000   13.3910000   28.0680000  
O 14.9270000   13.0170000   27.2370000  
O 18.7890000   19.8440000   26.3980000  
O 19.4860000   19.5190000   28.9420000  
H 18.5780000   17.4320000   30.3200000  
H 17.3670000   14.6100000   30.1130000  
H 16.8350000   12.8900000   29.5930000  
H 18.5820000   19.7110000   25.3890000  
C 17.0660000   17.6700000   25.1770000  
C 15.6950000   17.8190000   24.9190000  
C 15.1450000   17.9270000   23.6280000  
C 15.8980000   17.9010000   22.4880000  
C 17.2880000   17.9370000   22.6970000  
C 17.8650000   17.7960000   23.9740000  
C 14.6010000   17.6770000   25.8520000  
C 13.4780000   17.6210000   25.0460000  
N 13.7890000   17.8940000   23.7230000  
O 11.7900000   17.5370000   26.7830000  
C 12.0500000   17.5210000   25.4460000  
O 11.1650000   17.4070000   24.5960000  
O 18.0340000   18.0860000   21.5640000  
O 19.1940000   17.6570000   24.1440000  
H 14.6740000   17.7640000   26.9680000  
H 12.6690000   17.5670000   27.2000000  
H 13.0360000   17.9840000   23.0880000  
H 17.3780000   18.2480000   20.8460000  
H 19.6700000   17.5970000   23.2490000  
C 15.4120000   17.9990000   21.0980000  
C 15.7640000   19.0870000   20.2660000  
C 15.3710000   19.1800000   18.9780000  
C 14.3810000   18.3190000   18.3700000  
C 14.0010000   17.1920000   19.2000000  
C 14.5960000   17.0260000   20.4730000  
C 16.4020000   20.3290000   20.5940000  
C 16.2260000   21.1100000   19.4750000  
N 15.5520000   20.4450000   18.4480000  
O 17.2590000   23.0760000   20.3650000  
C 16.7220000   22.4860000   19.2780000  
O 16.4860000   23.0640000   18.2400000  
O 13.2030000   16.2120000   18.7400000  
O 14.3350000   15.8920000   21.2330000  
H 16.8200000   20.6560000   21.6000000  
H 17.2890000   22.3380000   21.0250000  
H 15.2500000   20.8220000   17.6120000  
H 13.1170000   16.2390000   17.8150000  
H 13.8980000   15.2340000   20.6950000  
C 13.6670000   18.6470000   17.0710000  
C 14.4030000   18.8840000   15.9110000  
C 13.7390000   19.2860000   14.7330000  
C 12.3300000   19.3890000   14.6440000  
C 11.5440000   18.9900000   15.7550000  
C 12.2440000   18.6710000   16.9380000  
C 15.8080000   18.8090000   15.4960000  
C 15.8790000   19.1720000   14.1660000  
N 14.6000000   19.5550000   13.6700000  
O 18.1320000   18.7340000   13.9390000  
C 17.0250000   19.1280000   13.2340000  
O 17.0450000   19.4960000   12.0680000  
O 10.1460000   18.9360000   15.7470000  
O 11.4540000   18.3470000   17.9490000  
H 16.6440000   18.6150000   16.1650000  
H 17.9570000   18.7920000   14.9000000  
H 14.4610000   19.9120000   12.7590000  
H  9.8340000   18.6940000   16.6320000  
H 11.9630000   18.2820000   18.7910000  
H 11.8070000   19.8040000   13.7340000  
