76
010 
C 11.7490000   17.9950000   28.5520000  
C 10.3280000   17.9450000   28.0350000  
C 10.1330000   18.0120000   26.6780000  
C 11.1520000   17.9870000   25.7230000  
C 12.4880000   17.9710000   26.1110000  
C 12.7790000   18.0090000   27.4460000  
C  8.9620000   18.2360000   25.9420000  
C  9.3620000   18.3190000   24.6330000  
N 10.7510000   18.0780000   24.4940000  
O  7.1010000   18.7990000   23.7870000  
C  8.3960000   18.6660000   23.4680000  
O  8.7780000   18.7760000   22.3280000  
O 14.0790000   18.2260000   27.8870000  
O 12.0060000   18.1190000   29.7160000  
H  9.5460000   18.0180000   28.8330000  
H  8.0410000   18.3470000   26.3380000  
H  7.1150000   18.9030000   24.6640000  
H 14.7140000   18.1460000   27.1450000  
C 13.4850000   17.8000000   25.0000000  
C 13.7310000   18.9210000   24.1970000  
C 14.4270000   18.8050000   23.0070000  
C 15.0300000   17.6430000   22.5220000  
C 14.7790000   16.5000000   23.4120000  
C 13.9800000   16.5780000   24.6180000  
C 13.1980000   20.2540000   24.1730000  
C 13.7060000   20.9010000   23.0640000  
N 14.4890000   20.0050000   22.3030000  
O 12.5460000   22.9660000   23.3620000  
C 13.4050000   22.2510000   22.5950000  
O 13.7500000   22.5970000   21.4730000  
O 15.3950000   15.2620000   23.1880000  
O 13.6100000   15.5010000   25.3960000  
H 12.4680000   20.6010000   24.8800000  
H 12.5770000   22.6410000   24.2370000  
H 14.7840000   20.1900000   21.3600000  
H 15.8800000   15.2840000   22.3810000  
H 13.9310000   14.7010000   24.9240000  
C 15.8960000   17.5860000   21.3140000  
C 17.0380000   18.3780000   21.1350000  
C 17.6990000   18.3580000   19.9170000  
C 17.4080000   17.5340000   18.8560000  
C 16.2390000   16.7710000   19.0080000  
C 15.5390000   16.7630000   20.2430000  
C 17.8660000   19.3300000   21.8900000  
C 18.9320000   19.7960000   21.1550000  
N 18.8200000   19.1710000   19.9110000  
O 19.9780000   20.7470000   23.0820000  
C 20.0610000   20.5560000   21.7040000  
O 20.9390000   21.1780000   21.1000000  
O 15.8260000   15.9790000   18.0250000  
O 14.4010000   15.9520000   20.3610000  
H 17.7030000   19.6800000   22.8860000  
H 19.1210000   20.4330000   23.3420000  
H 19.6110000   19.1490000   19.3010000  
H 16.5240000   15.9190000   17.3440000  
H 14.3270000   15.5230000   19.5200000  
C 18.1590000   17.5770000   17.5830000  
C 19.4820000   17.1380000   17.5170000  
C 20.0950000   17.0180000   16.3010000  
C 19.6030000   17.4320000   15.0460000  
C 18.2980000   18.0550000   15.1570000  
C 17.5920000   18.0810000   16.4270000  
C 20.2490000   16.4330000   18.4970000  
C 21.3250000   15.9190000   17.7340000  
N 21.2820000   16.3740000   16.4210000  
O 22.1580000   14.4960000   19.5370000  
C 22.3430000   15.0200000   18.2930000  
O 23.3960000   14.7800000   17.7670000  
O 17.7080000   18.5540000   14.0310000  
O 16.3810000   18.6900000   16.4400000  
H 20.1010000   16.2920000   19.5400000  
H 21.2370000   14.6900000   19.8300000  
H 22.0690000   16.3840000   15.7530000  
H 16.7630000   18.7940000   14.1340000  
H 15.9970000   18.6390000   17.3160000  
H 20.2620000   17.2860000   14.2160000  
