76
010 
C 13.5580000   11.1240000   20.1180000  
C 12.1130000   10.9550000   20.5630000  
C 11.3710000   12.0780000   20.9080000  
C 11.8310000   13.3810000   20.8790000  
C 13.1700000   13.6040000   20.4410000  
C 13.9810000   12.5450000   20.0910000  
C 10.0400000   12.1190000   21.3300000  
C  9.7830000   13.4840000   21.5310000  
N 10.9690000   14.2650000   21.3100000  
O  7.4700000   13.2500000   22.0670000  
C  8.5030000   14.0370000   21.9490000  
O  8.4120000   15.2360000   22.1910000  
O 15.2550000   12.7280000   19.6150000  
O 14.3330000   10.2060000   19.9000000  
H 11.6750000    9.9440000   20.5870000  
H  9.3820000   11.2580000   21.5000000  
H  7.7240000   12.3440000   21.9050000  
H 15.3760000   13.6760000   19.5320000  
C 13.8070000   14.9520000   20.6760000  
C 14.0930000   15.4570000   21.9640000  
C 14.7090000   16.6390000   22.1270000  
C 15.3170000   17.4490000   21.1140000  
C 15.0350000   16.8850000   19.7920000  
C 14.3370000   15.6700000   19.5590000  
C 13.7360000   14.9830000   23.2730000  
C 14.2740000   15.9290000   24.2170000  
N 14.8390000   17.0270000   23.4890000  
O 13.3920000   15.0280000   26.2200000  
C 14.2740000   15.9310000   25.6900000  
O 14.9490000   16.7000000   26.3650000  
O 15.5680000   17.4930000   18.6860000  
O 14.2280000   15.2350000   18.1960000  
H 13.5170000   13.9500000   23.4690000  
H 13.0010000   14.7430000   25.4330000  
H 15.1780000   17.9050000   23.9520000  
H 16.0120000   18.3290000   18.8100000  
H 14.4520000   15.9970000   17.5840000  
C 15.7580000   18.8820000   21.4140000  
C 16.9890000   19.0970000   22.0500000  
C 17.3650000   20.3750000   22.2840000  
C 16.7420000   21.5510000   21.8730000  
C 15.5200000   21.3240000   21.1910000  
C 14.9880000   20.0400000   21.0350000  
C 17.9670000   18.1770000   22.5730000  
C 18.8900000   18.9180000   23.2510000  
N 18.5430000   20.2710000   23.0920000  
O 20.1270000   17.0340000   23.9010000  
C 20.0720000   18.3730000   23.9440000  
O 20.8840000   19.0460000   24.5820000  
O 14.7920000   22.4090000   20.7320000  
O 13.7720000   19.8460000   20.5330000  
H 17.9430000   17.0860000   22.4050000  
H 19.1800000   16.8630000   23.6430000  
H 19.0780000   21.0670000   23.3800000  
H 15.1700000   23.2500000   21.1090000  
H 13.4230000   20.7310000   20.1690000  
C 17.2630000   22.9040000   22.2100000  
C 18.4630000   23.2540000   21.5630000  
C 18.9220000   24.5230000   21.5700000  
C 18.2450000   25.5330000   22.2200000  
C 16.9740000   25.2840000   22.8240000  
C 16.4920000   23.9390000   22.8440000  
C 19.3060000   22.4780000   20.7160000  
C 20.3200000   23.2620000   20.2600000  
N 20.0310000   24.5650000   20.7280000  
O 21.3970000   21.6700000   18.8390000  
C 21.4230000   22.9020000   19.3540000  
O 22.2540000   23.7660000   19.0500000  
O 16.2800000   26.2560000   23.5410000  
O 15.3660000   23.6680000   23.5520000  
H 19.1520000   21.4100000   20.5230000  
H 20.5990000   21.0700000   18.9990000  
H 20.6000000   25.3700000   20.5450000  
H 15.3240000   25.9040000   23.6660000  
H 15.4480000   23.9970000   24.4700000  
H 18.6330000   26.5140000   22.1680000  
