76
010 
C 15.5650000   10.7610000   22.7270000  
C 14.2620000   10.2260000   22.2990000  
C 13.4290000   11.0780000   21.5820000  
C 13.7940000   12.3820000   21.2900000  
C 15.0630000   12.9670000   21.6800000  
C 15.8830000   12.1280000   22.4210000  
C 12.1670000   10.8760000   21.0240000  
C 11.7990000   12.0860000   20.4210000  
N 12.8090000   13.0060000   20.6890000  
O  9.6770000   11.3730000   19.6920000  
C 10.5470000   12.3720000   19.7020000  
O 10.3830000   13.4410000   19.1930000  
O 17.0750000   12.5100000   22.8680000  
O 16.3360000    9.9930000   23.3360000  
H 13.9160000    9.2000000   22.5700000  
H 11.5090000   10.0390000   20.9520000  
H  9.8850000   10.6770000   20.3380000  
H 17.0930000   13.5230000   22.6420000  
C 15.2700000   14.3660000   21.4940000  
C 14.4230000   15.2960000   22.1050000  
C 14.6230000   16.6550000   22.0140000  
C 15.6800000   17.2720000   21.2700000  
C 16.4980000   16.3490000   20.6200000  
C 16.3670000   14.9160000   20.7820000  
C 13.2140000   15.1380000   22.9350000  
C 12.7880000   16.4120000   23.3610000  
N 13.6990000   17.3790000   22.8190000  
O 10.8430000   15.6350000   24.4190000  
C 11.6380000   16.6950000   24.2330000  
O 11.4580000   17.7920000   24.7000000  
O 17.6040000   16.8400000   19.8760000  
O 17.3340000   14.1580000   20.0860000  
H 12.7130000   14.2310000   23.0240000  
H 11.2580000   14.9000000   23.9340000  
H 13.7330000   18.3450000   22.8270000  
H 17.3530000   17.7550000   19.7260000  
H 17.9900000   14.7830000   19.7080000  
C 15.8040000   18.7500000   21.0520000  
C 16.1380000   19.5410000   22.1150000  
C 16.3730000   20.8270000   21.9740000  
C 16.2070000   21.5380000   20.7920000  
C 15.8340000   20.6930000   19.6660000  
C 15.5480000   19.3390000   19.8190000  
C 16.4680000   19.1760000   23.5040000  
C 16.7820000   20.3850000   24.1540000  
N 16.7440000   21.4110000   23.1990000  
O 17.0830000   19.4180000   26.3150000  
C 17.0460000   20.5330000   25.6440000  
O 17.2860000   21.5830000   26.2340000  
O 15.7320000   21.3370000   18.5060000  
O 15.2080000   18.5330000   18.7620000  
H 16.4690000   18.1610000   23.9340000  
H 17.2760000   18.6500000   25.7480000  
H 16.8940000   22.4140000   23.2970000  
H 15.9310000   22.3110000   18.6680000  
H 15.1260000   19.1060000   17.9720000  
C 16.3580000   22.9750000   20.7690000  
C 17.6330000   23.5400000   20.9790000  
C 17.8090000   24.9290000   20.9490000  
C 16.8420000   25.8750000   20.5870000  
C 15.6200000   25.2880000   20.1250000  
C 15.3190000   23.9210000   20.3640000  
C 18.8570000   22.9950000   21.3820000  
C 19.7260000   24.0900000   21.6720000  
N 19.0660000   25.2710000   21.3910000  
O 21.5230000   22.7830000   22.4280000  
C 21.0930000   24.0150000   22.1960000  
O 21.8340000   24.9370000   22.3480000  
O 14.7070000   26.2450000   19.6220000  
O 14.0590000   23.5000000   19.9920000  
H 19.0580000   21.9580000   21.4930000  
H 20.6470000   22.3070000   22.2330000  
H 19.4420000   26.2180000   21.4640000  
H 13.7820000   25.9570000   19.7410000  
H 13.9600000   22.5160000   20.1650000  
H 17.0360000   26.9540000   20.5720000  
