76
010 
C  7.9700000   17.3360000   21.4750000  
C  7.5870000   16.5550000   22.6110000  
C  8.5730000   16.0390000   23.4300000  
C  9.9440000   16.4150000   23.3260000  
C 10.3010000   17.1840000   22.1540000  
C  9.3370000   17.6390000   21.2910000  
C  8.5570000   15.1510000   24.5170000  
C  9.8170000   15.1960000   25.0700000  
N 10.6900000   15.9060000   24.3090000  
O  9.2650000   14.0310000   26.9980000  
C 10.3040000   14.4980000   26.2870000  
O 11.4250000   14.2130000   26.6220000  
O  9.6840000   18.5720000   20.3370000  
O  7.1030000   17.7690000   20.6910000  
H  6.5640000   16.2410000   22.6410000  
H  7.7200000   14.5320000   24.8820000  
H  8.4530000   14.5680000   26.7460000  
H 10.6230000   18.4340000   20.1760000  
C 11.7240000   17.6410000   22.0680000  
C 12.6580000   16.8010000   21.4760000  
C 14.0030000   17.0960000   21.5730000  
C 14.5390000   18.2850000   22.1420000  
C 13.5460000   19.1290000   22.7900000  
C 12.1520000   18.8030000   22.7160000  
C 12.5250000   15.4070000   21.0450000  
C 13.8810000   14.9850000   20.8370000  
N 14.7750000   16.0620000   21.0600000  
O 13.2560000   12.8310000   20.4350000  
C 14.2310000   13.6450000   20.5870000  
O 15.3820000   13.2540000   20.2980000  
O 13.9060000   20.3300000   23.2990000  
O 11.2200000   19.7030000   23.1830000  
H 11.6000000   14.8440000   20.8750000  
H 12.4650000   13.4330000   20.5620000  
H 15.7250000   15.9320000   21.1760000  
H 14.8780000   20.3340000   23.3500000  
H 11.6370000   20.5140000   23.5280000  
C 15.9980000   18.5460000   22.0440000  
C 16.6660000   18.8420000   20.8430000  
C 18.0470000   19.0150000   20.8110000  
C 18.9650000   18.9800000   21.8640000  
C 18.3450000   18.7470000   23.1120000  
C 16.8670000   18.6280000   23.1950000  
C 16.3000000   18.8910000   19.4410000  
C 17.4030000   19.2240000   18.6650000  
N 18.5380000   19.2390000   19.4840000  
O 16.2180000   19.5730000   16.6470000  
C 17.4250000   19.5710000   17.2590000  
O 18.4560000   19.7570000   16.6320000  
O 19.1540000   18.7990000   24.2200000  
O 16.4290000   18.4350000   24.5090000  
H 15.3690000   18.6650000   18.9790000  
H 15.4960000   19.5900000   17.2680000  
H 19.4730000   19.3270000   19.0610000  
H 19.8360000   19.5150000   24.0590000  
H 17.2260000   18.4150000   25.0410000  
C 20.4340000   19.0860000   21.5930000  
C 21.0540000   20.3270000   21.2280000  
C 22.4020000   20.4260000   20.8630000  
C 23.2500000   19.3350000   21.1020000  
C 22.6770000   18.1430000   21.6000000  
C 21.2850000   18.0050000   21.8500000  
C 20.4950000   21.6520000   20.9720000  
C 21.5420000   22.4560000   20.4930000  
N 22.7020000   21.6910000   20.4750000  
O 20.2990000   24.4190000   20.4480000  
C 21.5080000   23.8850000   20.1530000  
O 22.4880000   24.5270000   19.8180000  
O 23.4880000   17.1050000   21.8360000  
O 20.7730000   16.8460000   22.4110000  
H 19.5300000   21.9900000   21.2770000  
H 19.7350000   23.6890000   20.7700000  
H 23.6010000   22.0570000   20.1590000  
H 22.8510000   16.4030000   22.0870000  
H 19.8870000   16.9530000   22.6800000  
H 24.3520000   19.4160000   20.9440000  
