76
010 
C 15.1860000   10.9690000   24.2460000  
C 16.0560000   10.9360000   25.4070000  
C 16.6300000   12.1100000   25.7870000  
C 16.5410000   13.3070000   25.1450000  
C 15.7930000   13.3480000   23.9110000  
C 15.1280000   12.2270000   23.5240000  
C 17.4930000   12.3240000   26.8650000  
C 17.6560000   13.7120000   26.9200000  
N 17.1100000   14.3190000   25.7780000  
O 18.8930000   13.8480000   28.9410000  
C 18.2580000   14.5410000   27.9710000  
O 18.1930000   15.7510000   27.9460000  
O 14.2480000   12.3320000   22.4800000  
O 14.5730000   10.0150000   23.8330000  
H 16.0630000   10.0270000   26.0290000  
H 17.7770000   11.6020000   27.6240000  
H 18.8110000   12.8970000   28.6590000  
H 14.3390000   13.2290000   22.1490000  
C 15.5720000   14.6440000   23.3320000  
C 16.5500000   15.2090000   22.5010000  
C 16.4860000   16.4290000   22.0740000  
C 15.4710000   17.4050000   22.3230000  
C 14.3760000   16.8040000   23.0530000  
C 14.4300000   15.4200000   23.5950000  
C 17.8390000   14.6610000   22.0590000  
C 18.3640000   15.6830000   21.2520000  
N 17.5150000   16.7820000   21.3020000  
O 20.1970000   14.3360000   20.4880000  
C 19.5900000   15.4960000   20.4160000  
O 19.9620000   16.3150000   19.5910000  
O 13.2350000   17.5030000   23.2790000  
O 13.4080000   14.9790000   24.4030000  
H 18.2940000   13.6760000   22.2100000  
H 19.8120000   13.9120000   21.3010000  
H 17.6490000   17.6800000   20.8610000  
H 13.4590000   18.3060000   22.8350000  
H 12.7480000   15.6490000   24.4380000  
C 15.4670000   18.8160000   21.7830000  
C 14.8640000   19.0380000   20.5160000  
C 14.9450000   20.2790000   19.9240000  
C 15.4010000   21.4470000   20.5620000  
C 15.8850000   21.2610000   21.9220000  
C 15.9610000   19.9280000   22.4520000  
C 14.1270000   18.2300000   19.5930000  
C 13.7440000   19.0540000   18.5730000  
N 14.4110000   20.2960000   18.6610000  
O 12.6850000   17.3290000   17.2110000  
C 13.0140000   18.6440000   17.3700000  
O 12.6600000   19.4060000   16.4860000  
O 16.3160000   22.2780000   22.6910000  
O 16.3680000   19.7660000   23.7410000  
H 13.8770000   17.2530000   19.8770000  
H 13.1740000   16.8760000   17.8850000  
H 14.5640000   21.0490000   18.0120000  
H 16.3650000   23.0670000   22.1590000  
H 17.0190000   20.4560000   24.0600000  
C 15.5310000   22.8160000   19.9210000  
C 14.3420000   23.5470000   19.6230000  
C 14.3560000   24.7040000   18.8760000  
C 15.5700000   25.3450000   18.5370000  
C 16.7620000   24.8040000   19.0120000  
C 16.7590000   23.4960000   19.6220000  
C 12.9830000   23.1500000   19.8280000  
C 12.2200000   24.0660000   19.0260000  
N 13.0470000   25.0800000   18.5380000  
O 10.1780000   22.7280000   19.1870000  
C 10.8420000   23.8060000   18.5780000  
O 10.2230000   24.5370000   17.8380000  
O 17.9230000   25.4580000   18.8400000  
O 17.9380000   22.9270000   19.8900000  
H 12.6990000   22.1120000   20.2160000  
H 10.8720000   22.2760000   19.6900000  
H 12.7260000   25.6810000   17.7740000  
H 17.5740000   26.3330000   18.4310000  
H 18.5120000   23.7030000   19.9780000  
H 15.5530000   26.3000000   17.9660000  
