76
010 
C 17.5650000   11.3120000   24.1350000  
C 17.7580000   11.4560000   25.5680000  
C 17.5240000   12.6670000   26.1850000  
C 17.0480000   13.7430000   25.4740000  
C 16.8320000   13.6480000   24.0310000  
C 17.0660000   12.4670000   23.3500000  
C 17.6070000   13.0710000   27.5840000  
C 17.1930000   14.3780000   27.5540000  
N 16.8310000   14.7850000   26.2760000  
O 17.3260000   14.5310000   29.9070000  
C 16.9930000   15.2230000   28.7880000  
O 16.6860000   16.3990000   28.8890000  
O 16.9460000   12.2870000   22.0140000  
O 17.6370000   10.1590000   23.6850000  
H 18.2670000   10.6630000   26.0470000  
H 17.8760000   12.4190000   28.4100000  
H 17.5710000   13.5940000   29.6160000  
H 16.5290000   13.1150000   21.7990000  
C 16.2980000   14.8010000   23.3880000  
C 17.0790000   15.9440000   23.2390000  
C 16.5730000   17.0810000   22.7100000  
C 15.3410000   17.1830000   22.1200000  
C 14.5300000   16.0800000   22.2280000  
C 15.0250000   14.8340000   22.8120000  
C 18.4480000   16.2650000   23.5790000  
C 18.7350000   17.5740000   23.1430000  
N 17.5350000   18.0360000   22.5350000  
O 20.9320000   17.7750000   24.1440000  
C 19.9870000   18.3360000   23.2980000  
O 20.1230000   19.4000000   22.7700000  
O 13.2200000   16.1130000   21.8000000  
O 14.2170000   13.7850000   22.9700000  
H 19.1650000   15.5770000   24.1420000  
H 20.3360000   17.2640000   24.6580000  
H 17.3280000   18.9320000   22.1440000  
H 12.9730000   17.0310000   21.7870000  
H 13.3880000   14.1500000   22.6100000  
C 14.8280000   18.4160000   21.4200000  
C 15.5970000   18.9280000   20.3740000  
C 15.2070000   20.0760000   19.7920000  
C 14.1080000   20.9010000   20.0970000  
C 13.4000000   20.4680000   21.2310000  
C 13.6990000   19.1930000   21.8060000  
C 16.4800000   18.2360000   19.4080000  
C 16.6640000   19.1230000   18.3670000  
N 15.8620000   20.2290000   18.6030000  
O 18.0620000   17.5960000   17.1050000  
C 17.5180000   18.8830000   17.0740000  
O 17.7230000   19.7170000   16.2510000  
O 12.5950000   21.2990000   21.8830000  
O 13.0220000   18.9160000   22.9690000  
H 16.7820000   17.1950000   19.4610000  
H 17.5460000   17.1570000   17.7750000  
H 15.8130000   21.0810000   18.0580000  
H 12.8650000   22.1960000   21.7170000  
H 12.5690000   19.7350000   23.2840000  
C 13.9570000   22.2170000   19.3640000  
C 12.8380000   22.4700000   18.6650000  
C 12.6960000   23.5960000   17.9170000  
C 13.7070000   24.5540000   17.7320000  
C 14.8530000   24.3630000   18.5230000  
C 14.9520000   23.2260000   19.3550000  
C 11.6370000   21.7640000   18.6000000  
C 10.7350000   22.4630000   17.7960000  
N 11.4210000   23.6080000   17.2940000  
O  8.8490000   21.0510000   18.2350000  
C  9.3560000   22.1160000   17.5590000  
O  8.5930000   22.6590000   16.7740000  
O 15.8770000   25.2210000   18.2780000  
O 16.1340000   23.0900000   20.1270000  
H 11.4040000   20.9090000   19.2340000  
H  9.6180000   20.7310000   18.7870000  
H 11.0650000   24.2860000   16.6580000  
H 16.6230000   25.1510000   18.8660000  
H 16.1050000   22.2540000   20.6640000  
H 13.3960000   25.4440000   17.1500000  
