76
010 
C  7.9610000   17.8890000   23.1730000  
C  7.6240000   16.4870000   23.2730000  
C  8.6130000   15.5270000   22.9930000  
C  9.9510000   15.8570000   22.7800000  
C 10.4020000   17.2680000   22.7830000  
C  9.4040000   18.2420000   22.8650000  
C  8.5270000   14.1040000   22.9010000  
C  9.8970000   13.7170000   22.6910000  
N 10.7690000   14.8510000   22.6340000  
O  9.3990000   11.4250000   22.5470000  
C 10.3750000   12.3070000   22.5660000  
O 11.5310000   11.9440000   22.4440000  
O  9.6090000   19.6120000   22.9100000  
O  7.1020000   18.7740000   23.2940000  
H  6.6000000   16.2540000   23.4930000  
H  7.6260000   13.4810000   23.1030000  
H  8.6220000   12.0410000   22.5870000  
H 10.5450000   19.8070000   22.8320000  
C 11.8480000   17.5890000   22.6730000  
C 12.5720000   17.0450000   21.6100000  
C 13.9010000   17.3410000   21.4430000  
C 14.6680000   18.2120000   22.2660000  
C 13.9450000   18.6900000   23.4000000  
C 12.5910000   18.3170000   23.6600000  
C 12.2260000   16.2600000   20.4590000  
C 13.4120000   16.0350000   19.7050000  
N 14.4240000   16.7930000   20.2470000  
O 12.5140000   14.7730000   17.9000000  
C 13.6150000   15.3060000   18.4380000  
O 14.6850000   15.2890000   17.8520000  
O 14.6240000   19.4220000   24.4170000  
O 11.9530000   18.6220000   24.8350000  
H 11.2540000   15.7910000   20.2720000  
H 11.8080000   14.9630000   18.5140000  
H 15.3100000   16.9510000   19.9600000  
H 15.5500000   19.6170000   24.1520000  
H 12.5660000   19.0390000   25.4110000  
C 16.1560000   18.3940000   22.1150000  
C 16.5950000   19.3880000   21.2380000  
C 17.9470000   19.5940000   21.0140000  
C 18.9380000   18.8140000   21.5290000  
C 18.5440000   17.8550000   22.4290000  
C 17.1790000   17.6680000   22.8520000  
C 15.9830000   20.4620000   20.4310000  
C 16.9650000   21.2600000   19.8470000  
N 18.1570000   20.6580000   20.1320000  
O 15.4790000   22.8030000   18.7530000  
C 16.7710000   22.4450000   18.9800000  
O 17.7000000   23.0550000   18.4870000  
O 19.4500000   16.9680000   22.8090000  
O 16.8740000   16.7210000   23.7290000  
H 14.8150000   20.5830000   20.4680000  
H 14.9100000   22.1200000   19.1930000  
H 19.1240000   20.9200000   19.7540000  
H 20.3180000   17.2420000   22.4220000  
H 17.7530000   16.3760000   23.9350000  
C 20.3740000   18.9920000   21.0590000  
C 21.1870000   19.8750000   21.7740000  
C 22.5170000   19.9680000   21.4320000  
C 23.1540000   19.1460000   20.4440000  
C 22.2740000   18.3210000   19.7500000  
C 20.8860000   18.3110000   19.9710000  
C 20.8820000   20.8870000   22.7840000  
C 22.1190000   21.4190000   23.1010000  
N 23.1060000   20.8250000   22.2580000  
O 21.3130000   23.0160000   24.7070000  
C 22.4100000   22.4210000   24.1400000  
O 23.6040000   22.6850000   24.4260000  
O 22.7500000   17.5160000   18.7110000  
O 20.1080000   17.5160000   19.1970000  
H 19.9530000   21.0820000   23.2450000  
H 20.6780000   22.4330000   24.3660000  
H 24.0530000   21.2430000   22.1390000  
H 21.9910000   16.9740000   18.4220000  
H 19.2350000   17.7840000   19.3390000  
H 24.2150000   19.1310000   20.2690000  
