76
010 
C  8.7870000   18.3720000   24.9780000  
C  8.0500000   17.1690000   24.4960000  
C  8.5770000   16.2730000   23.6290000  
C  9.9140000   16.3230000   23.1830000  
C 10.7230000   17.4670000   23.5520000  
C 10.1250000   18.4440000   24.3600000  
C  8.0310000   15.0610000   23.1420000  
C  9.0780000   14.4350000   22.4740000  
N 10.2600000   15.2830000   22.4510000  
O  7.6640000   12.6730000   21.7330000  
C  8.9300000   13.1860000   21.7420000  
O  9.8300000   12.6500000   21.0980000  
O 10.7090000   19.6510000   24.6280000  
O  8.2670000   19.1470000   25.7830000  
H  7.0530000   17.0660000   24.9560000  
H  7.0520000   14.6320000   23.2590000  
H  7.4420000   12.8360000   22.6550000  
H 11.6150000   19.6280000   24.2280000  
C 12.2090000   17.4850000   23.2170000  
C 12.6270000   17.6210000   21.8750000  
C 13.9320000   17.8350000   21.4650000  
C 14.9030000   17.8170000   22.4470000  
C 14.5350000   17.6910000   23.8400000  
C 13.2110000   17.4980000   24.1750000  
C 11.8830000   17.6070000   20.6320000  
C 12.7720000   17.8760000   19.5530000  
N 14.0630000   18.0090000   20.0950000  
O 11.1850000   17.6430000   17.8130000  
C 12.4920000   17.8280000   18.1330000  
O 13.3100000   17.9940000   17.2500000  
O 15.5450000   17.7150000   24.7120000  
O 12.8670000   17.3300000   25.4700000  
H 10.8270000   17.4150000   20.5420000  
H 10.6070000   17.6940000   18.6070000  
H 14.9140000   18.0330000   19.5220000  
H 16.4010000   17.7560000   24.3400000  
H 13.6680000   17.5970000   25.8810000  
C 16.3440000   18.0340000   22.0250000  
C 16.8200000   19.3050000   21.6090000  
C 17.9860000   19.4970000   21.0560000  
C 18.9770000   18.5160000   21.0440000  
C 18.6700000   17.1940000   21.5410000  
C 17.3490000   16.9970000   22.0710000  
C 16.1390000   20.5450000   21.4780000  
C 16.9370000   21.4160000   20.6710000  
N 18.0750000   20.6560000   20.4000000  
O 15.4700000   23.1950000   20.6700000  
C 16.6480000   22.7380000   20.1970000  
O 17.4230000   23.3940000   19.5770000  
O 19.5820000   16.1630000   21.4300000  
O 17.0410000   15.7920000   22.5210000  
H 15.1340000   20.8690000   22.0010000  
H 15.3070000   22.5350000   21.4060000  
H 18.8730000   21.0030000   19.9220000  
H 20.4110000   16.6270000   21.2090000  
H 17.7790000   15.2650000   22.1440000  
C 20.2660000   18.7960000   20.3400000  
C 21.4120000   19.1250000   21.0780000  
C 22.6250000   19.2650000   20.4320000  
C 22.7640000   19.0410000   19.0560000  
C 21.6060000   18.7590000   18.2580000  
C 20.3410000   18.6390000   18.9690000  
C 21.7080000   19.2660000   22.4880000  
C 23.0820000   19.3610000   22.6280000  
N 23.6550000   19.4850000   21.4080000  
O 22.9310000   19.3680000   24.9640000  
C 23.7430000   19.5330000   23.9400000  
O 24.8700000   19.8450000   24.1540000  
O 21.6660000   18.5930000   16.9440000  
O 19.3030000   18.3340000   18.1880000  
H 20.9770000   19.3200000   23.2770000  
H 22.1110000   18.9900000   24.5470000  
H 24.5920000   19.7800000   21.1500000  
H 20.7580000   18.3670000   16.6440000  
H 18.4340000   18.3700000   18.6310000  
H 23.7400000   19.0080000   18.6330000  
