76
010 
C  8.6820000   19.1010000   24.7000000  
C  8.1130000   17.6790000   24.8790000  
C  8.8590000   16.6210000   24.5500000  
C 10.1930000   16.7210000   24.0760000  
C 10.8470000   18.0310000   24.0330000  
C 10.0960000   19.1800000   24.2350000  
C  8.5960000   15.2390000   24.6780000  
C  9.7470000   14.6360000   24.1380000  
N 10.7320000   15.5460000   23.8030000  
O  8.8180000   12.4440000   24.4210000  
C  9.8780000   13.1610000   24.0220000  
O 10.8840000   12.6010000   23.6310000  
O 10.5660000   20.4310000   24.0690000  
O  7.9240000   20.0230000   24.9550000  
H  7.0400000   17.5400000   25.1570000  
H  7.6580000   14.8610000   25.0180000  
H  8.0680000   13.0900000   24.4590000  
H 11.5080000   20.3130000   23.8350000  
C 12.1220000   18.0730000   23.3330000  
C 12.2640000   18.5870000   22.0400000  
C 13.4500000   18.5010000   21.3970000  
C 14.7070000   18.1090000   21.9470000  
C 14.6000000   17.5810000   23.2630000  
C 13.3210000   17.4920000   23.9450000  
C 11.3170000   19.0850000   21.1170000  
C 12.0060000   19.2440000   19.8430000  
N 13.3150000   18.8180000   20.0760000  
O 10.1030000   19.8020000   18.4620000  
C 11.4540000   19.6560000   18.5330000  
O 12.1710000   20.0270000   17.5750000  
O 15.7400000   17.1230000   23.9320000  
O 13.2890000   16.8030000   25.1530000  
H 10.2580000   19.4440000   21.2790000  
H  9.9550000   19.5480000   19.3980000  
H 14.0340000   18.7310000   19.3650000  
H 16.4210000   17.4450000   23.3330000  
H 14.1470000   16.3320000   25.3160000  
C 15.9940000   18.3390000   21.2000000  
C 17.0970000   19.0520000   21.7890000  
C 18.3040000   19.2020000   21.1770000  
C 18.5760000   18.8720000   19.8600000  
C 17.5640000   18.1770000   19.2530000  
C 16.3180000   17.8980000   19.8840000  
C 17.2320000   19.6290000   23.0500000  
C 18.5210000   20.0100000   23.2270000  
N 19.2360000   19.7590000   22.0320000  
O 18.3520000   21.0870000   25.3590000  
C 19.1470000   20.7750000   24.3310000  
O 20.3080000   21.1580000   24.3570000  
O 17.8310000   17.7860000   17.9540000  
O 15.3930000   17.2190000   19.0900000  
H 16.4120000   19.7790000   23.8300000  
H 17.3930000   20.8690000   25.0460000  
H 20.2280000   19.9850000   21.8670000  
H 18.6430000   18.1390000   17.5640000  
H 15.8750000   16.8880000   18.2850000  
C 19.8840000   19.0900000   19.1680000  
C 21.0200000   18.3860000   19.7090000  
C 22.2800000   18.5680000   19.3070000  
C 22.5590000   19.3860000   18.2030000  
C 21.4920000   20.0460000   17.5770000  
C 20.1620000   19.8560000   18.0450000  
C 21.0810000   17.3550000   20.6980000  
C 22.3980000   17.0810000   20.9770000  
N 23.1470000   17.8630000   20.1050000  
O 22.0030000   15.1440000   22.3070000  
C 22.9570000   16.0120000   21.8050000  
O 24.1940000   15.9040000   21.9740000  
O 21.7060000   20.8580000   16.4550000  
O 19.1730000   20.4480000   17.4090000  
H 20.2930000   16.7750000   21.1590000  
H 21.0970000   15.4930000   22.1430000  
H 24.1800000   17.7540000   19.8990000  
H 20.8550000   21.2580000   16.2070000  
H 18.4410000   20.4500000   18.0820000  
H 23.5430000   19.4350000   17.8590000  
