76
010 
C 14.3100000   11.7220000   25.4510000  
C 15.3750000   10.7780000   25.0030000  
C 16.5130000   11.2610000   24.3990000  
C 16.5920000   12.5650000   23.7990000  
C 15.4860000   13.5050000   24.0320000  
C 14.4050000   13.0850000   24.8140000  
C 17.7380000   10.6800000   23.9790000  
C 18.5010000   11.6450000   23.3470000  
N 17.7110000   12.8060000   23.1310000  
O 20.3040000   10.0400000   23.1740000  
C 19.9070000   11.3060000   22.8340000  
O 20.6480000   12.1420000   22.3100000  
O 13.3970000   13.9220000   25.1770000  
O 13.4970000   11.3880000   26.2850000  
H 15.3330000    9.7900000   25.3540000  
H 18.0400000    9.6860000   24.0780000  
H 19.5860000    9.6860000   23.6290000  
H 13.6430000   14.6800000   24.5980000  
C 15.5420000   14.8420000   23.5720000  
C 15.3790000   15.0860000   22.1840000  
C 15.4460000   16.3500000   21.7330000  
C 15.6910000   17.5070000   22.4930000  
C 16.0080000   17.2220000   23.8700000  
C 15.8560000   15.9200000   24.4140000  
C 15.2800000   14.2210000   21.0440000  
C 15.1620000   15.0060000   19.9420000  
N 15.2020000   16.3260000   20.3780000  
O 14.7780000   13.3670000   18.3020000  
C 14.9380000   14.6740000   18.5290000  
O 14.8110000   15.4840000   17.6200000  
O 16.1100000   18.2280000   24.7390000  
O 16.1690000   15.6280000   25.7090000  
H 15.1380000   13.1450000   21.0530000  
H 15.0240000   13.0360000   19.1620000  
H 15.3230000   17.1820000   19.8800000  
H 16.5830000   19.0200000   24.4300000  
H 16.3430000   16.5180000   26.0320000  
C 15.9200000   18.8770000   21.9020000  
C 14.9550000   19.4430000   21.0930000  
C 15.1460000   20.6880000   20.5220000  
C 16.2500000   21.5600000   20.6530000  
C 17.2420000   20.9610000   21.5490000  
C 17.0820000   19.6900000   22.1430000  
C 13.5540000   18.9660000   20.7980000  
C 13.0730000   19.9570000   19.9630000  
N 13.9630000   21.0320000   19.8420000  
O 10.8730000   19.1350000   19.6180000  
C 11.7640000   20.0680000   19.2810000  
O 11.4780000   20.8500000   18.4000000  
O 18.3700000   21.6160000   21.9990000  
O 18.0730000   19.1730000   22.8510000  
H 13.1460000   17.9700000   21.0260000  
H 11.3080000   18.6890000   20.3480000  
H 13.8550000   21.8110000   19.2290000  
H 18.2890000   22.5130000   21.6540000  
H 18.6800000   19.8930000   22.9540000  
C 16.2540000   22.9950000   20.0760000  
C 15.1990000   23.9020000   20.4300000  
C 15.1350000   25.1680000   19.8980000  
C 16.1050000   25.6660000   19.0080000  
C 17.0770000   24.7610000   18.5110000  
C 17.1160000   23.4300000   19.0300000  
C 14.1230000   23.7940000   21.4040000  
C 13.5000000   25.0650000   21.5040000  
N 14.1470000   25.9230000   20.5450000  
O 11.8400000   24.5090000   23.0440000  
C 12.2730000   25.4690000   22.2820000  
O 11.7540000   26.5650000   22.2420000  
O 17.9430000   25.1910000   17.5490000  
O 18.0170000   22.5960000   18.5110000  
H 13.8300000   22.9240000   21.8700000  
H 12.4020000   23.7840000   22.8860000  
H 14.0110000   26.9100000   20.3840000  
H 18.7120000   24.5860000   17.5820000  
H 18.1080000   21.7250000   19.0300000  
H 15.9410000   26.6630000   18.7130000  
