76
010 
C 12.1350000   16.9330000   28.2700000  
C 10.9810000   17.8180000   28.2870000  
C 10.7260000   18.6060000   27.2370000  
C 11.4630000   18.5850000   26.0230000  
C 12.4300000   17.5180000   25.8220000  
C 12.8350000   16.7710000   26.9560000  
C  9.8180000   19.6270000   27.0950000  
C 10.0950000   20.1820000   25.8540000  
N 11.0570000   19.4960000   25.1470000  
O  8.2520000   21.7560000   25.9780000  
C  9.3600000   21.3100000   25.2580000  
O  9.6300000   21.9250000   24.2040000  
O 13.8530000   15.8760000   26.9860000  
O 12.4880000   16.3280000   29.2660000  
H 10.3690000   17.8480000   29.1000000  
H  9.0300000   19.8580000   27.8630000  
H  8.4860000   21.4800000   26.9360000  
H 14.1110000   15.6800000   26.0800000  
C 13.3350000   17.5580000   24.6400000  
C 14.1630000   18.6530000   24.3780000  
C 14.9140000   18.6620000   23.2520000  
C 14.8630000   17.7280000   22.2760000  
C 14.0890000   16.5500000   22.5200000  
C 13.3260000   16.4440000   23.7630000  
C 14.2760000   19.9680000   25.0260000  
C 15.1850000   20.6460000   24.2210000  
N 15.5220000   19.8470000   23.1080000  
O 14.9590000   22.6330000   25.5100000  
C 15.5600000   22.0490000   24.4290000  
O 16.4510000   22.5570000   23.7840000  
O 14.0670000   15.5890000   21.5530000  
O 12.4580000   15.3690000   23.8850000  
H 13.6690000   20.3940000   25.7660000  
H 14.4060000   21.8790000   25.8810000  
H 16.1180000   20.1040000   22.3680000  
H 14.0310000   16.0010000   20.6150000  
H 12.6750000   14.6760000   23.2290000  
C 15.5970000   17.8670000   20.9380000  
C 17.0040000   17.9880000   20.9080000  
C 17.7050000   18.1030000   19.7140000  
C 17.1610000   18.1440000   18.4720000  
C 15.7600000   18.0710000   18.4330000  
C 14.9400000   17.8870000   19.6540000  
C 17.9730000   17.9620000   22.0010000  
C 19.2200000   18.3030000   21.4190000  
N 19.0450000   18.2680000   20.0240000  
O 20.2990000   18.8700000   23.4330000  
C 20.4380000   18.7110000   22.1210000  
O 21.4910000   19.0370000   21.5710000  
O 15.2520000   17.9130000   17.2070000  
O 13.6260000   17.6630000   19.4590000  
H 17.7940000   17.8600000   23.0600000  
H 19.5800000   18.2050000   23.7000000  
H 19.7910000   18.2870000   19.3230000  
H 15.8270000   18.2920000   16.5280000  
H 13.5810000   17.4980000   18.4880000  
C 17.9940000   18.1190000   17.2320000  
C 18.8670000   16.9980000   16.9640000  
C 19.3080000   16.8060000   15.6890000  
C 19.1980000   17.8480000   14.6910000  
C 18.5030000   18.9540000   15.0070000  
C 17.8010000   19.0580000   16.2400000  
C 19.0090000   15.7340000   17.6560000  
C 19.5110000   14.8020000   16.7810000  
N 19.8080000   15.5200000   15.5930000  
O 19.5660000   12.9380000   18.2640000  
C 19.7650000   13.3580000   16.9860000  
O 20.1810000   12.6560000   16.0770000  
O 18.2540000   19.8520000   13.9400000  
O 16.9030000   20.1580000   16.3600000  
H 18.8060000   15.5600000   18.6880000  
H 19.2370000   13.7170000   18.7740000  
H 20.2760000   15.0850000   14.7970000  
H 17.9970000   20.6940000   14.3240000  
H 16.6750000   20.3890000   17.2870000  
H 19.5130000   17.7410000   13.6690000  
