76
010 
C 12.0140000   19.6830000   28.2650000  
C 13.1220000   19.9670000   29.1950000  
C 14.4230000   19.8650000   28.7750000  
C 14.7620000   19.4960000   27.4830000  
C 13.7290000   19.1560000   26.5140000  
C 12.3990000   19.3130000   26.8900000  
C 15.6240000   19.9960000   29.5310000  
C 16.6400000   19.9240000   28.5400000  
N 16.0850000   19.5160000   27.3490000  
O 18.2830000   20.3420000   30.1610000  
C 18.1070000   20.1180000   28.8660000  
O 18.9690000   19.9510000   28.0880000  
O 11.3940000   19.0500000   26.0650000  
O 10.8530000   19.8610000   28.6150000  
H 12.9040000   20.1350000   30.2410000  
H 15.6820000   20.2530000   30.5680000  
H 17.4890000   20.3500000   30.7040000  
H 11.8130000   18.8710000   25.2180000  
C 14.1940000   19.0760000   25.0760000  
C 15.1110000   18.0390000   24.6990000  
C 15.4830000   17.8650000   23.4080000  
C 15.0350000   18.7720000   22.3640000  
C 14.2160000   19.8560000   22.7760000  
C 13.7480000   19.9620000   24.0900000  
C 15.8600000   17.0420000   25.4620000  
C 16.6760000   16.4230000   24.5320000  
N 16.4430000   16.9250000   23.2390000  
O 17.6120000   14.7890000   26.0870000  
C 17.6050000   15.2890000   24.8130000  
O 18.3110000   14.8660000   23.9300000  
O 13.7390000   20.7920000   21.7750000  
O 12.8080000   20.9670000   24.3400000  
H 15.7610000   16.7380000   26.5200000  
H 17.0810000   15.3550000   26.6080000  
H 16.9220000   16.6960000   22.3780000  
H 14.5060000   20.9580000   21.1690000  
H 12.6440000   21.4550000   23.5240000  
C 15.3590000   18.5690000   20.9580000  
C 15.0040000   17.3520000   20.4510000  
C 15.2930000   17.0270000   19.1100000  
C 16.1370000   17.7560000   18.2500000  
C 16.5780000   18.9840000   18.7990000  
C 16.1210000   19.3890000   20.0860000  
C 14.1680000   16.2050000   20.8760000  
C 14.2540000   15.1590000   19.9210000  
N 15.0020000   15.6700000   18.8530000  
O 13.0870000   13.5760000   21.0690000  
C 13.7420000   13.7790000   19.9220000  
O 13.8330000   12.9490000   19.0530000  
O 17.5690000   19.6910000   18.1040000  
O 16.6240000   20.5540000   20.5960000  
H 13.5780000   16.1550000   21.8290000  
H 13.0170000   14.4630000   21.3540000  
H 15.3950000   15.1770000   18.0840000  
H 17.8210000   19.2780000   17.2570000  
H 17.5310000   20.6850000   20.3580000  
C 16.6300000   17.2440000   16.9360000  
C 16.3320000   17.9730000   15.7710000  
C 16.8710000   17.6600000   14.5410000  
C 17.6750000   16.5140000   14.3610000  
C 18.0040000   15.7810000   15.5470000  
C 17.4790000   16.1020000   16.8060000  
C 15.5630000   19.1490000   15.5590000  
C 15.7220000   19.5650000   14.2340000  
N 16.4970000   18.6180000   13.5930000  
O 14.2000000   21.4480000   14.2830000  
C 15.0900000   20.6790000   13.5070000  
O 15.2280000   20.9420000   12.3340000  
O 18.8600000   14.7290000   15.3600000  
O 17.8540000   15.3780000   17.8880000  
H 15.1050000   19.6380000   16.3800000  
H 13.8100000   20.8100000   14.8900000  
H 17.0130000   18.7560000   12.7520000  
H 19.4000000   14.8470000   14.5440000  
H 18.5760000   14.7830000   17.6020000  
H 18.1700000   16.3310000   13.4340000  
