76
010 
C 19.9750000   16.4250000   27.3070000  
C 19.7280000   14.9950000   27.8210000  
C 18.8510000   14.2320000   27.1300000  
C 17.9850000   14.6950000   26.0860000  
C 18.0940000   16.0370000   25.6220000  
C 19.1230000   16.8120000   26.1510000  
C 18.5700000   12.8750000   27.3470000  
C 17.5100000   12.6030000   26.5070000  
N 17.0820000   13.7380000   25.7720000  
O 17.4000000   10.2650000   27.2410000  
C 16.8980000   11.2040000   26.4430000  
O 15.9000000   10.9840000   25.8100000  
O 19.4310000   18.0270000   25.6880000  
O 20.9210000   17.0940000   27.7050000  
H 20.4190000   14.6410000   28.5320000  
H 19.0360000   12.1870000   27.9680000  
H 18.2020000   10.6830000   27.5990000  
H 18.6350000   18.1370000   25.1930000  
C 17.2000000   16.5560000   24.5670000  
C 16.2360000   17.5710000   24.7680000  
C 15.4760000   18.0530000   23.7200000  
C 15.6310000   17.6390000   22.3820000  
C 16.6240000   16.6220000   22.1700000  
C 17.4210000   16.0980000   23.2400000  
C 15.8430000   18.4150000   25.9190000  
C 14.9170000   19.3830000   25.4500000  
N 14.7110000   19.0990000   24.0650000  
O 14.3270000   20.3200000   27.6340000  
C 14.2190000   20.4400000   26.2310000  
O 13.5850000   21.3190000   25.7530000  
O 16.7440000   16.0150000   20.9300000  
O 18.3960000   15.1320000   22.9850000  
H 16.2470000   18.4340000   26.9130000  
H 14.9510000   19.6160000   27.9060000  
H 14.2410000   19.7440000   23.3990000  
H 15.9360000   16.3220000   20.4580000  
H 18.3840000   14.6270000   22.1460000  
C 14.9640000   18.3690000   21.2270000  
C 15.6950000   19.3690000   20.5270000  
C 15.1290000   20.0390000   19.4770000  
C 13.7470000   19.9620000   19.0500000  
C 12.9600000   19.1020000   19.8900000  
C 13.5880000   18.3130000   20.8990000  
C 17.0880000   19.7290000   20.6090000  
C 17.2790000   20.5990000   19.4690000  
N 16.0640000   20.7650000   18.7510000  
O 19.6310000   20.8130000   19.9540000  
C 18.5850000   21.2400000   19.1330000  
O 18.7690000   22.0100000   18.2350000  
O 11.5970000   19.0350000   19.7600000  
O 12.7450000   17.5550000   21.6670000  
H 17.7240000   19.6230000   21.4850000  
H 19.2270000   20.2730000   20.6600000  
H 16.0140000   21.2060000   17.8030000  
H 11.3410000   19.6870000   19.1020000  
H 11.7730000   17.8480000   21.6260000  
C 13.2300000   20.7740000   17.9400000  
C 12.9270000   20.1500000   16.7510000  
C 12.3680000   20.8710000   15.7570000  
C 11.8860000   22.1970000   15.8900000  
C 12.0740000   22.8070000   17.1430000  
C 12.8070000   22.0980000   18.1920000  
C 12.7760000   18.8100000   16.2980000  
C 12.3910000   18.7590000   15.0040000  
N 12.2050000   20.0810000   14.6270000  
O 12.3440000   16.3530000   14.7420000  
C 12.0720000   17.5940000   14.1690000  
O 11.6010000   17.5940000   13.0730000  
O 11.4620000   24.0250000   17.3360000  
O 13.0930000   22.7860000   19.3800000  
H 13.0590000   18.0060000   16.9510000  
H 12.7950000   16.5450000   15.6040000  
H 11.9950000   20.3880000   13.6700000  
H 11.0470000   24.3980000   16.5160000  
H 12.8020000   23.7770000   19.4100000  
H 11.2120000   22.6220000   15.1430000  
