76
010 
C 12.3150000   17.4330000   28.6410000  
C 11.3800000   18.6000000   28.7370000  
C 11.0120000   19.2130000   27.6300000  
C 11.6250000   19.0100000   26.3800000  
C 12.6460000   18.0100000   26.1940000  
C 12.9140000   17.1820000   27.2700000  
C 10.1790000   20.3210000   27.5110000  
C 10.3490000   20.6720000   26.1510000  
N 11.3000000   19.9530000   25.4540000  
O  8.5910000   22.3480000   26.3860000  
C  9.6290000   21.8830000   25.5720000  
O  9.8610000   22.3420000   24.4870000  
O 13.7710000   16.1960000   27.2500000  
O 12.6140000   16.7970000   29.6740000  
H 10.9670000   18.8760000   29.6960000  
H  9.5440000   20.7880000   28.2670000  
H  8.6510000   21.4860000   26.9660000  
H 14.1520000   16.2110000   26.3760000  
C 13.3430000   17.8830000   24.8640000  
C 14.4280000   18.7210000   24.6150000  
C 15.1160000   18.5710000   23.3840000  
C 14.7120000   17.7560000   22.3350000  
C 13.6460000   16.8600000   22.6880000  
C 12.9120000   16.9280000   23.9100000  
C 14.9780000   19.8770000   25.2330000  
C 15.8680000   20.4720000   24.2550000  
N 15.9560000   19.6850000   23.1530000  
O 16.3150000   22.2760000   25.6460000  
C 16.5700000   21.7460000   24.4840000  
O 17.4100000   22.2960000   23.7740000  
O 13.1480000   15.9170000   21.7540000  
O 11.8900000   16.0730000   24.2660000  
H 14.6140000   20.3600000   26.0720000  
H 15.6300000   21.7010000   26.0890000  
H 16.5470000   19.8080000   22.3800000  
H 13.1830000   16.3440000   20.8650000  
H 12.0200000   15.2450000   23.7610000  
C 15.3280000   17.6410000   20.9240000  
C 16.6200000   17.0180000   20.7230000  
C 17.2700000   17.2250000   19.5400000  
C 16.7960000   17.8900000   18.4060000  
C 15.4970000   18.4330000   18.5480000  
C 14.7490000   18.3360000   19.7970000  
C 17.6150000   16.5010000   21.6480000  
C 18.8140000   16.3840000   20.9730000  
N 18.5770000   16.8110000   19.6630000  
O 20.1230000   15.1710000   22.7320000  
C 20.0860000   15.7770000   21.4860000  
O 21.1270000   15.7060000   20.8060000  
O 14.8910000   18.9100000   17.4240000  
O 13.7450000   19.2190000   20.0040000  
H 17.4730000   16.2460000   22.7010000  
H 19.1580000   15.2130000   23.0390000  
H 19.2240000   16.8550000   18.8470000  
H 15.5480000   19.2420000   16.8280000  
H 13.4050000   19.4600000   19.1520000  
C 17.6650000   18.1350000   17.1910000  
C 18.3060000   17.0150000   16.5300000  
C 19.1560000   17.3100000   15.4810000  
C 19.4520000   18.6480000   15.0750000  
C 18.9100000   19.7560000   15.7390000  
C 18.0290000   19.4390000   16.8060000  
C 18.2570000   15.6250000   16.6960000  
C 19.0040000   15.0870000   15.6880000  
N 19.6270000   16.1270000   14.9850000  
O 18.2560000   12.8470000   16.1040000  
C 19.1270000   13.6630000   15.4050000  
O 19.9710000   13.2840000   14.6660000  
O 19.2330000   21.0140000   15.2590000  
O 17.5180000   20.5540000   17.4970000  
H 17.6380000   15.1500000   17.4450000  
H 17.7760000   13.5480000   16.5630000  
H 20.1710000   16.0130000   14.1270000  
H 18.7990000   21.6880000   15.7970000  
H 17.4130000   20.2970000   18.4330000  
H 19.9890000   18.8100000   14.1610000  
