76
010 
C 19.9390000   15.3190000   27.0760000  
C 19.1510000   14.3650000   27.8840000  
C 17.8570000   14.1060000   27.4650000  
C 17.3020000   14.5810000   26.2190000  
C 17.9550000   15.5660000   25.4590000  
C 19.1670000   16.0200000   25.9460000  
C 16.8900000   13.2460000   27.9780000  
C 15.7900000   13.2800000   27.0850000  
N 16.0440000   14.1530000   26.0020000  
O 14.3350000   12.1080000   28.5620000  
C 14.4700000   12.5910000   27.3370000  
O 13.5330000   12.6930000   26.4870000  
O 19.8990000   16.9980000   25.3450000  
O 21.0780000   15.4740000   27.2780000  
H 19.6040000   14.0230000   28.7700000  
H 17.0570000   12.6250000   28.8530000  
H 15.1550000   12.3420000   29.0310000  
H 19.6230000   16.9930000   24.4430000  
C 17.2260000   16.2610000   24.3690000  
C 16.8670000   17.6100000   24.5230000  
C 16.2190000   18.2730000   23.5530000  
C 15.8240000   17.7310000   22.3360000  
C 16.2540000   16.3710000   22.1230000  
C 16.9330000   15.6800000   23.1320000  
C 16.9300000   18.5330000   25.6540000  
C 16.2960000   19.6750000   25.2580000  
N 15.7890000   19.4900000   23.9640000  
O 16.5910000   20.8850000   27.2760000  
C 16.0450000   20.9050000   26.0700000  
O 15.4600000   21.9190000   25.6230000  
O 16.0140000   15.7160000   20.9000000  
O 17.3590000   14.4220000   22.9810000  
H 17.5460000   18.4020000   26.5710000  
H 17.0720000   20.0940000   27.2250000  
H 15.2830000   20.1060000   23.3660000  
H 15.4670000   16.2770000   20.3000000  
H 17.2970000   14.0490000   22.1170000  
C 15.0960000   18.4600000   21.2830000  
C 15.5930000   19.6360000   20.7000000  
C 14.9730000   20.1930000   19.6580000  
C 13.7780000   19.7890000   19.0780000  
C 13.2490000   18.6840000   19.6760000  
C 13.8530000   17.9630000   20.7810000  
C 16.8740000   20.3100000   20.8540000  
C 16.8880000   21.3140000   19.9170000  
N 15.6700000   21.2410000   19.1520000  
O 18.9510000   22.2670000   20.6380000  
C 17.9290000   22.3690000   19.7010000  
O 17.8720000   23.2250000   18.8160000  
O 12.0560000   18.2690000   19.1860000  
O 13.1850000   16.7910000   21.1500000  
H 17.6870000   19.9940000   21.5390000  
H 18.5260000   21.7390000   21.3790000  
H 15.4100000   21.8940000   18.3780000  
H 11.8750000   18.6920000   18.3100000  
H 12.3460000   16.8800000   20.6440000  
C 13.1720000   20.4450000   17.9020000  
C 12.9700000   19.7140000   16.6960000  
C 12.3600000   20.2940000   15.6430000  
C 11.8340000   21.5610000   15.6260000  
C 11.9660000   22.3030000   16.8240000  
C 12.6490000   21.7450000   17.9120000  
C 13.4590000   18.4070000   16.2410000  
C 13.2200000   18.3370000   14.9000000  
N 12.5290000   19.5100000   14.4770000  
O 14.4660000   16.4160000   14.3840000  
C 13.7130000   17.3690000   13.8850000  
O 13.4580000   17.4670000   12.7040000  
O 11.5750000   23.5690000   16.7880000  
O 12.8860000   22.4760000   19.0440000  
H 14.1100000   17.7340000   16.8940000  
H 14.5460000   16.6940000   15.3090000  
H 12.3400000   19.7840000   13.5220000  
H 11.5190000   23.7800000   17.7360000  
H 13.2340000   22.0230000   19.7970000  
H 11.5090000   21.9980000   14.7840000  
