76
010 
C 16.1770000   20.8280000   28.3890000  
C 16.4110000   19.7400000   29.3640000  
C 16.8460000   18.4790000   28.9170000  
C 17.0410000   18.2420000   27.5350000  
C 16.7140000   19.2260000   26.5930000  
C 16.3050000   20.4480000   26.9800000  
C 17.3040000   17.3060000   29.5520000  
C 17.6070000   16.4090000   28.5360000  
N 17.3870000   17.0090000   27.2950000  
O 18.3720000   14.4460000   29.7520000  
C 18.1530000   15.0630000   28.5400000  
O 18.3420000   14.5020000   27.4880000  
O 16.0630000   21.4140000   26.0550000  
O 15.8710000   21.9530000   28.7190000  
H 16.2130000   19.8680000   30.3970000  
H 17.3700000   17.2100000   30.6840000  
H 18.2920000   15.1640000   30.4620000  
H 16.3210000   21.0360000   25.1870000  
C 16.7060000   18.8090000   25.1880000  
C 15.6820000   17.9770000   24.7360000  
C 15.6600000   17.6060000   23.4260000  
C 16.5050000   18.0150000   22.4240000  
C 17.5270000   18.8710000   22.8510000  
C 17.5490000   19.3590000   24.1960000  
C 14.5960000   17.2900000   25.4230000  
C 13.8880000   16.6170000   24.4170000  
N 14.5870000   16.6770000   23.2680000  
O 12.0920000   16.0220000   25.7970000  
C 12.5970000   15.9860000   24.5440000  
O 12.1230000   15.3840000   23.5790000  
O 18.4360000   19.3940000   21.9340000  
O 18.5930000   20.1180000   24.5060000  
H 14.3160000   17.4670000   26.4890000  
H 12.9070000   16.3900000   26.2520000  
H 14.3030000   16.2400000   22.4280000  
H 18.4870000   18.8410000   21.1840000  
H 19.0210000   20.3370000   23.6980000  
C 16.2060000   17.6970000   20.9830000  
C 14.9610000   17.9900000   20.4710000  
C 14.6580000   17.7290000   19.1800000  
C 15.5680000   17.2670000   18.1640000  
C 16.8640000   17.0240000   18.6820000  
C 17.1240000   17.0760000   20.0550000  
C 13.9320000   18.8710000   20.9310000  
C 12.9330000   18.9510000   19.9660000  
N 13.4040000   18.2680000   18.8290000  
O 11.6220000   20.5810000   21.0150000  
C 11.6720000   19.8110000   19.9770000  
O 10.8600000   19.8010000   19.0420000  
O 17.9060000   16.7090000   17.7960000  
O 18.3240000   16.5370000   20.4960000  
H 13.7440000   19.1420000   21.9440000  
H 12.4660000   20.5520000   21.5170000  
H 12.8830000   18.1640000   17.9240000  
H 17.5370000   16.6330000   16.9020000  
H 18.7450000   16.2460000   19.6970000  
C 15.2580000   17.1760000   16.6630000  
C 14.9670000   18.3110000   15.9110000  
C 14.8670000   18.1990000   14.5450000  
C 15.0890000   16.9990000   13.8190000  
C 15.3450000   15.8110000   14.5730000  
C 15.4210000   15.9030000   15.9650000  
C 14.7260000   19.6330000   16.2950000  
C 14.3830000   20.3080000   15.1310000  
N 14.5890000   19.4030000   13.9940000  
O 14.2920000   22.4230000   16.1230000  
C 14.0730000   21.7460000   14.9970000  
O 13.6860000   22.2240000   13.9630000  
O 15.6910000   14.6960000   13.9060000  
O 15.6930000   14.6870000   16.6300000  
H 14.7820000   19.9750000   17.3080000  
H 14.5180000   21.7340000   16.7910000  
H 14.2150000   19.5110000   13.0440000  
H 15.5920000   14.7400000   12.9730000  
H 15.8680000   14.0260000   15.9640000  
H 15.0310000   17.0240000   12.7450000  
