76
010 
C 10.3920000   13.3150000   19.1190000  
C  9.5000000   13.0160000   20.3130000  
C  9.5420000   13.7460000   21.4030000  
C 10.4470000   14.8080000   21.6280000  
C 11.2840000   15.2040000   20.5690000  
C 11.1920000   14.5650000   19.3190000  
C  8.8120000   13.6770000   22.6240000  
C  9.4620000   14.5940000   23.4890000  
N 10.4250000   15.3180000   22.7880000  
O  8.2290000   14.0560000   25.5120000  
C  9.1000000   14.9060000   24.8740000  
O  9.4480000   15.9060000   25.5090000  
O 12.0580000   14.8210000   18.3280000  
O 10.3010000   12.7220000   18.1110000  
H  8.8350000   12.1350000   20.1320000  
H  7.9990000   12.9800000   22.8080000  
H  8.0180000   13.3430000   25.0040000  
H 12.5980000   15.4280000   18.8520000  
C 12.4580000   16.1230000   20.8290000  
C 13.5320000   15.7680000   21.6620000  
C 14.4940000   16.6880000   21.8350000  
C 14.6260000   17.9200000   21.2430000  
C 13.5770000   18.2170000   20.2500000  
C 12.4840000   17.3360000   20.1180000  
C 13.8280000   14.6760000   22.4400000  
C 14.9880000   14.9910000   23.1670000  
N 15.4300000   16.2450000   22.7600000  
O 15.3860000   12.8400000   24.4160000  
C 15.7770000   14.1070000   24.0940000  
O 16.8070000   14.5250000   24.6120000  
O 13.6550000   19.4120000   19.5110000  
O 11.4910000   17.6150000   19.3200000  
H 13.3270000   13.6840000   22.4560000  
H 14.4010000   12.8890000   24.1000000  
H 16.2110000   16.8100000   22.9920000  
H 14.4180000   19.8860000   19.9290000  
H 11.7750000   18.4360000   18.8550000  
C 15.7030000   18.8540000   21.6690000  
C 17.1000000   18.5550000   21.4550000  
C 18.0330000   19.4550000   21.8560000  
C 17.7520000   20.6490000   22.5590000  
C 16.3970000   20.9670000   22.8110000  
C 15.4130000   20.0890000   22.3080000  
C 17.8300000   17.5010000   20.7990000  
C 19.1400000   17.9120000   20.7340000  
N 19.2840000   19.1240000   21.4060000  
O 20.0440000   16.1440000   19.4990000  
C 20.3330000   17.3350000   20.0300000  
O 21.4250000   17.8760000   20.0370000  
O 16.1250000   22.1820000   23.4060000  
O 14.1450000   20.5610000   22.5510000  
H 17.4410000   16.4950000   20.3680000  
H 19.0650000   16.1250000   19.4580000  
H 20.1540000   19.6170000   21.5500000  
H 16.9590000   22.5580000   23.6400000  
H 14.1090000   21.1620000   23.3070000  
C 18.8350000   21.6130000   22.8960000  
C 19.4640000   22.3850000   21.8800000  
C 20.4550000   23.2780000   22.1040000  
C 20.9590000   23.5630000   23.4280000  
C 20.2270000   22.8750000   24.4700000  
C 19.2260000   21.9260000   24.1960000  
C 19.4070000   22.1850000   20.4430000  
C 20.3420000   23.0800000   19.8930000  
N 20.9670000   23.7410000   20.9150000  
O 19.6040000   22.7900000   17.5890000  
C 20.4700000   23.4350000   18.4140000  
O 21.1890000   24.3100000   17.9140000  
O 20.5300000   23.2110000   25.7290000  
O 18.5810000   21.3780000   25.2200000  
H 18.6750000   21.5600000   19.9470000  
H 18.9680000   22.3520000   18.1550000  
H 21.5600000   24.5780000   20.7820000  
H 19.8820000   22.7900000   26.2800000  
H 18.3570000   20.4230000   25.0650000  
H 21.8360000   24.2090000   23.6460000  
