76
010 
C 15.1600000   20.2170000   28.6690000  
C 16.0450000   19.4230000   29.5440000  
C 16.6960000   18.3470000   28.9550000  
C 16.6900000   17.9480000   27.6160000  
C 15.8660000   18.7030000   26.7570000  
C 15.2360000   19.8480000   27.2130000  
C 17.3720000   17.2890000   29.6120000  
C 17.7990000   16.4010000   28.6150000  
N 17.3880000   16.7970000   27.3610000  
O 18.6160000   14.7560000   30.0910000  
C 18.4860000   15.1760000   28.8340000  
O 18.9640000   14.4720000   27.9550000  
O 14.6560000   20.7160000   26.4050000  
O 14.5590000   21.1970000   29.1070000  
H 16.0020000   19.5670000   30.6020000  
H 17.6070000   17.1850000   30.6110000  
H 18.1070000   15.4130000   30.5830000  
H 15.0240000   20.6420000   25.6100000  
C 15.9220000   18.4350000   25.3450000  
C 14.9770000   17.6390000   24.6890000  
C 14.9870000   17.4800000   23.3500000  
C 15.8350000   18.0440000   22.4390000  
C 16.9470000   18.7370000   23.0910000  
C 16.9520000   18.9260000   24.5300000  
C 13.7650000   17.1260000   25.2100000  
C 13.1290000   16.6420000   24.0860000  
N 13.8340000   16.8950000   22.9100000  
O 11.3810000   15.6710000   25.3450000  
C 11.8480000   15.8860000   24.1240000  
O 11.2850000   15.5410000   23.0750000  
O 17.8740000   19.1720000   22.2100000  
O 17.9050000   19.6610000   25.1130000  
H 13.3450000   17.2820000   26.2050000  
H 12.0560000   15.9000000   26.0070000  
H 13.5700000   16.5320000   21.9910000  
H 17.4420000   19.1100000   21.3450000  
H 18.4930000   20.0110000   24.4570000  
C 15.6500000   17.8510000   21.0150000  
C 14.7730000   18.7150000   20.3550000  
C 14.5860000   18.7250000   19.0190000  
C 15.2290000   17.8080000   18.1130000  
C 16.1210000   16.8250000   18.6940000  
C 16.2860000   16.8430000   20.1410000  
C 14.0090000   19.8340000   20.8530000  
C 13.4680000   20.4880000   19.7720000  
N 13.7370000   19.6940000   18.6250000  
O 12.2300000   21.9470000   21.1690000  
C 12.5590000   21.6260000   19.9060000  
O 12.0880000   22.2690000   18.9700000  
O 16.8330000   15.9560000   17.8910000  
O 17.2620000   16.0290000   20.6730000  
H 13.8570000   20.2100000   21.8450000  
H 12.3410000   21.1340000   21.7670000  
H 13.4620000   19.9150000   17.6510000  
H 16.5650000   16.1200000   16.9700000  
H 17.7470000   15.6140000   19.9400000  
C 14.9370000   17.9110000   16.6680000  
C 15.9190000   18.0960000   15.6950000  
C 15.7410000   18.0160000   14.3380000  
C 14.4470000   17.8410000   13.7500000  
C 13.4350000   17.5780000   14.7600000  
C 13.6830000   17.5600000   16.1190000  
C 17.2870000   18.2940000   15.9010000  
C 17.8770000   18.5140000   14.6690000  
N 16.9220000   18.2840000   13.6800000  
O 20.0640000   18.9040000   15.5440000  
C 19.3320000   18.8320000   14.3980000  
O 19.8170000   19.0390000   13.3290000  
O 12.0920000   17.4430000   14.3190000  
O 12.6180000   17.1280000   16.9220000  
H 17.7740000   18.1560000   16.8500000  
H 19.3270000   18.6820000   16.1340000  
H 17.1190000   18.2510000   12.6630000  
H 11.5210000   17.2100000   15.0980000  
H 13.0080000   16.9220000   17.7780000  
H 14.1850000   17.6640000   12.6570000  
