76
010 
C 14.2230000   11.0940000   23.8990000  
C 15.0680000   10.9730000   25.1020000  
C 15.7620000   12.0210000   25.6000000  
C 15.8570000   13.2650000   24.9530000  
C 15.1810000   13.4000000   23.6940000  
C 14.3350000   12.4010000   23.1930000  
C 16.5230000   12.1040000   26.7820000  
C 16.9420000   13.4280000   26.8380000  
N 16.6010000   14.1170000   25.6560000  
O 18.2410000   12.8950000   28.6470000  
C 17.6840000   13.9020000   28.0060000  
O 17.8720000   15.0730000   28.3170000  
O 13.4680000   12.5000000   22.1430000  
O 13.6280000   10.0930000   23.4700000  
H 14.9400000   10.0580000   25.6370000  
H 16.6910000   11.2740000   27.5380000  
H 18.3190000   12.1200000   28.1830000  
H 13.3520000   13.4510000   21.9970000  
C 15.3440000   14.6760000   22.9850000  
C 15.7560000   14.7230000   21.6510000  
C 15.9070000   15.8990000   20.9540000  
C 15.5730000   17.1570000   21.4970000  
C 15.3470000   17.1490000   22.9200000  
C 15.1000000   15.9780000   23.5930000  
C 15.8510000   13.7160000   20.5910000  
C 16.0770000   14.4260000   19.3910000  
N 15.9340000   15.8030000   19.6100000  
O 16.8490000   12.5540000   18.0840000  
C 16.5140000   13.8630000   18.0650000  
O 16.6210000   14.5600000   17.1300000  
O 15.2240000   18.2740000   23.6740000  
O 14.5550000   16.0250000   24.8720000  
H 15.8670000   12.6040000   20.6870000  
H 16.6080000   12.1710000   18.9140000  
H 16.0300000   16.4840000   18.8830000  
H 15.2120000   19.0860000   23.1400000  
H 14.9190000   16.8230000   25.3010000  
C 15.6810000   18.4580000   20.7660000  
C 14.5540000   19.3190000   20.7630000  
C 14.6430000   20.5680000   20.2260000  
C 15.7770000   21.0900000   19.5780000  
C 16.8960000   20.2180000   19.5360000  
C 16.8910000   18.8830000   20.1510000  
C 13.2410000   19.2660000   21.4050000  
C 12.6220000   20.4910000   21.1990000  
N 13.5190000   21.3330000   20.4750000  
O 10.7670000   19.8730000   22.4100000  
C 11.3550000   20.8910000   21.7560000  
O 10.9100000   22.0220000   21.6740000  
O 18.0480000   20.6240000   18.9580000  
O 17.9840000   18.1760000   20.2870000  
H 12.8230000   18.5830000   22.1400000  
H 11.3880000   19.1550000   22.4510000  
H 13.4730000   22.3300000   20.3020000  
H 17.9890000   21.5180000   18.6670000  
H 18.6560000   18.7700000   19.8340000  
C 15.8120000   22.4450000   18.9580000  
C 15.7810000   23.5510000   19.7930000  
C 15.8570000   24.8190000   19.2720000  
C 15.8870000   25.1300000   17.8680000  
C 15.9750000   24.0170000   17.0380000  
C 15.9760000   22.6970000   17.5750000  
C 15.9050000   23.6620000   21.2160000  
C 16.0130000   25.0220000   21.5890000  
N 15.9880000   25.7040000   20.3370000  
O 16.0000000   24.8140000   23.9750000  
C 16.1250000   25.6230000   22.9130000  
O 16.3070000   26.8500000   23.0540000  
O 16.0760000   24.1850000   15.6570000  
O 16.0980000   21.6330000   16.7670000  
H 15.9740000   22.8650000   22.0470000  
H 16.0840000   23.9440000   23.5370000  
H 15.8100000   26.6730000   20.1950000  
H 15.8270000   25.0040000   15.3060000  
H 16.1800000   22.0430000   15.8810000  
H 15.9100000   26.1190000   17.4510000  
