76
010 
C 15.1280000   10.8450000   24.0980000  
C 16.2310000   10.7460000   25.0360000  
C 16.9100000   11.8710000   25.3950000  
C 16.7050000   13.1000000   24.7700000  
C 15.6640000   13.2690000   23.7960000  
C 14.9340000   12.1500000   23.3910000  
C 18.0440000   12.0350000   26.2080000  
C 18.2880000   13.3660000   26.2690000  
N 17.4330000   14.0150000   25.3790000  
O 20.0690000   13.2240000   27.7810000  
C 19.4550000   14.0340000   26.8980000  
O 19.8780000   15.1580000   26.7020000  
O 13.9420000   12.2580000   22.4610000  
O 14.3860000    9.9280000   23.8390000  
H 16.4180000    9.7420000   25.4420000  
H 18.7650000   11.2740000   26.6310000  
H 19.4130000   12.4420000   27.8080000  
H 13.9830000   13.2260000   22.2210000  
C 15.5390000   14.5920000   23.2840000  
C 16.5080000   15.2680000   22.4390000  
C 16.4110000   16.6000000   22.0840000  
C 15.2070000   17.3910000   22.3030000  
C 14.1770000   16.6190000   22.9750000  
C 14.3170000   15.3260000   23.5590000  
C 17.8020000   14.8270000   21.9190000  
C 18.3950000   16.0110000   21.3640000  
N 17.4040000   16.9700000   21.2390000  
O 20.7150000   15.2150000   21.4540000  
C 19.8310000   16.1560000   20.9830000  
O 20.2110000   17.1510000   20.3620000  
O 12.9970000   17.2700000   23.1790000  
O 13.2380000   14.8810000   24.3310000  
H 18.4410000   14.0090000   22.2020000  
H 20.1680000   14.5060000   21.9060000  
H 17.4090000   17.8600000   20.8570000  
H 13.1740000   18.2090000   22.9230000  
H 12.6310000   15.5910000   24.6680000  
C 15.1340000   18.7740000   21.7280000  
C 14.8910000   18.9390000   20.3530000  
C 14.9570000   20.1790000   19.7720000  
C 15.0070000   21.4120000   20.4340000  
C 15.0930000   21.3050000   21.8420000  
C 15.2560000   20.0110000   22.4780000  
C 14.7350000   17.9510000   19.2580000  
C 14.7530000   18.6880000   18.0710000  
N 14.9540000   20.0380000   18.3880000  
O 14.1360000   16.9460000   16.5040000  
C 14.4820000   18.2660000   16.6740000  
O 14.4530000   19.0870000   15.7570000  
O 15.0510000   22.4230000   22.6630000  
O 15.3830000   19.9680000   23.8820000  
H 14.7140000   16.9090000   19.2820000  
H 14.1800000   16.4720000   17.3410000  
H 15.1040000   20.7690000   17.6890000  
H 15.1190000   23.2940000   22.1540000  
H 15.4130000   20.8970000   24.1890000  
C 14.9260000   22.7050000   19.7110000  
C 13.8240000   23.5860000   19.9810000  
C 13.6060000   24.6100000   19.1330000  
C 14.4540000   24.9290000   18.0110000  
C 15.4960000   24.0470000   17.7790000  
C 15.7930000   23.0340000   18.7220000  
C 12.8190000   23.5930000   21.0240000  
C 12.0660000   24.7490000   20.7380000  
N 12.5550000   25.3100000   19.5650000  
O 10.8450000   24.6210000   22.7490000  
C 10.9180000   25.1960000   21.5400000  
O 10.0900000   26.0010000   21.1730000  
O 16.3680000   24.3650000   16.7450000  
O 16.9590000   22.3790000   18.5220000  
H 12.6200000   22.9910000   21.9020000  
H 11.6680000   24.1360000   22.8560000  
H 12.1720000   26.0720000   19.0830000  
H 17.1760000   23.8250000   16.9620000  
H 17.1580000   22.0050000   19.3990000  
H 14.2300000   25.7220000   17.3440000  
