76
010 
C 13.4510000   12.2750000   26.1230000  
C 14.6960000   11.4490000   26.1570000  
C 15.6460000   11.6440000   25.1740000  
C 15.6450000   12.6170000   24.2500000  
C 14.5150000   13.5240000   24.2260000  
C 13.4520000   13.3290000   25.0890000  
C 16.8810000   11.0330000   25.0450000  
C 17.5020000   11.7210000   23.9600000  
N 16.6950000   12.7300000   23.4440000  
O 19.4870000   10.5250000   24.1080000  
C 18.8310000   11.4150000   23.4350000  
O 19.2450000   12.0270000   22.4840000  
O 12.3060000   14.0500000   25.0880000  
O 12.6600000   12.1430000   27.0610000  
H 14.7580000   10.7870000   26.9850000  
H 17.2310000   10.1990000   25.7130000  
H 18.9530000   10.2590000   24.8230000  
H 12.5200000   14.6660000   24.3830000  
C 14.7030000   14.7980000   23.5120000  
C 14.9660000   14.8630000   22.1010000  
C 15.1460000   16.0580000   21.4450000  
C 15.0310000   17.3710000   22.0430000  
C 14.8430000   17.3330000   23.4690000  
C 14.6360000   16.0920000   24.1540000  
C 15.0380000   13.8770000   21.0600000  
C 15.4050000   14.4620000   19.8670000  
N 15.4030000   15.8680000   20.0960000  
O 15.5440000   12.4910000   18.6490000  
C 15.8240000   13.8020000   18.6530000  
O 16.4230000   14.4000000   17.8010000  
O 14.9030000   18.4900000   24.1390000  
O 14.7130000   16.1100000   25.5070000  
H 14.9790000   12.7700000   21.1980000  
H 15.2270000   12.3480000   19.5190000  
H 15.6120000   16.5200000   19.4390000  
H 15.0650000   19.1840000   23.4790000  
H 14.6750000   17.0160000   25.8080000  
C 15.4140000   18.6930000   21.3410000  
C 14.4820000   19.7470000   21.3070000  
C 14.8290000   20.9110000   20.6210000  
C 16.1480000   21.1600000   20.0860000  
C 17.0740000   20.1180000   20.2530000  
C 16.7250000   18.8950000   20.8530000  
C 13.1330000   19.8550000   21.7380000  
C 12.7110000   21.0920000   21.1920000  
N 13.7370000   21.7100000   20.5140000  
O 10.5590000   21.1770000   22.1830000  
C 11.3610000   21.6700000   21.2140000  
O 11.0190000   22.5260000   20.4170000  
O 18.3080000   20.3110000   19.8490000  
O 17.6260000   17.8680000   20.9570000  
H 12.5530000   19.0760000   22.2920000  
H 11.1390000   20.7170000   22.7790000  
H 13.7450000   22.5600000   19.9680000  
H 18.3180000   21.1860000   19.4750000  
H 18.4840000   18.2840000   20.8440000  
C 16.3470000   22.4320000   19.3340000  
C 16.2090000   23.7070000   19.9110000  
C 16.5910000   24.8270000   19.2210000  
C 16.8430000   24.7970000   17.8840000  
C 16.9690000   23.5640000   17.2350000  
C 16.7080000   22.3920000   17.9560000  
C 16.0840000   24.0990000   21.2840000  
C 16.3440000   25.4510000   21.3600000  
N 16.5220000   25.8890000   20.0370000  
O 16.1370000   25.7380000   23.7720000  
C 16.4230000   26.3070000   22.5800000  
O 16.6120000   27.4980000   22.5950000  
O 17.1410000   23.4840000   15.8550000  
O 16.7270000   21.1480000   17.3200000  
H 16.0190000   23.3780000   22.1720000  
H 16.0670000   24.7790000   23.8090000  
H 16.5400000   26.8490000   19.7130000  
H 16.6290000   24.1450000   15.2850000  
H 16.9150000   21.2680000   16.3520000  
H 17.1630000   25.6770000   17.3560000  
