76
010 
C 11.7460000   12.4620000   18.8380000  
C 10.5380000   12.2150000   19.7290000  
C 10.4160000   12.9960000   20.8090000  
C 11.1700000   14.1510000   21.1420000  
C 12.3390000   14.4240000   20.3750000  
C 12.5820000   13.7130000   19.2010000  
C  9.3470000   13.0200000   21.7850000  
C  9.5780000   14.1570000   22.5760000  
N 10.7940000   14.7720000   22.2350000  
O  7.5560000   13.8440000   23.7630000  
C  8.7220000   14.5440000   23.7270000  
O  9.0700000   15.3780000   24.5130000  
O 13.7300000   13.8800000   18.4660000  
O 12.0540000   11.7640000   17.8620000  
H  9.8000000   11.4940000   19.2700000  
H  8.5450000   12.2690000   21.7830000  
H  7.5620000   13.1440000   23.1400000  
H 14.2640000   14.5590000   18.9310000  
C 13.0530000   15.6220000   20.7670000  
C 13.8290000   15.6620000   21.9760000  
C 14.4970000   16.7840000   22.3890000  
C 14.4590000   18.0320000   21.6950000  
C 13.6640000   18.0330000   20.5050000  
C 13.0110000   16.8250000   20.0630000  
C 13.9940000   14.6200000   22.9970000  
C 14.7320000   15.2430000   23.9790000  
N 15.0620000   16.5600000   23.5920000  
O 15.0790000   13.1560000   25.1070000  
C 15.1890000   14.5130000   25.1440000  
O 15.7260000   14.9150000   26.1410000  
O 13.5070000   19.2020000   19.7330000  
O 12.2510000   16.8780000   18.9360000  
H 13.5610000   13.5900000   23.0560000  
H 14.8020000   12.9340000   24.1950000  
H 15.6670000   17.2090000   24.1190000  
H 14.0640000   19.9700000   20.0440000  
H 12.5540000   17.6950000   18.5620000  
C 15.4300000   19.1780000   22.0570000  
C 16.8180000   18.9000000   22.0500000  
C 17.6870000   19.9750000   22.1760000  
C 17.2940000   21.2530000   22.3630000  
C 15.9100000   21.5420000   22.4840000  
C 14.9840000   20.4960000   22.3540000  
C 17.5700000   17.7500000   21.6230000  
C 18.9510000   18.2100000   21.5320000  
N 18.9650000   19.5650000   22.0170000  
O 19.7840000   16.0330000   21.2250000  
C 20.1460000   17.3130000   21.3590000  
O 21.3240000   17.6720000   21.3680000  
O 15.5110000   22.7830000   22.8790000  
O 13.6650000   20.6950000   22.4620000  
H 17.1960000   16.7280000   21.2550000  
H 18.8220000   16.1310000   21.4460000  
H 19.8650000   20.1190000   22.0900000  
H 16.1190000   23.4610000   22.6680000  
H 13.6490000   21.6840000   22.6640000  
C 18.3340000   22.3840000   22.5600000  
C 19.2320000   22.7000000   21.5470000  
C 20.1420000   23.6860000   21.7340000  
C 20.3350000   24.3340000   22.9600000  
C 19.4250000   24.1040000   23.9730000  
C 18.4740000   23.0810000   23.7890000  
C 19.3370000   22.3040000   20.1780000  
C 20.2900000   23.1160000   19.5550000  
N 20.9420000   23.7380000   20.6250000  
O 20.1180000   22.0600000   17.3740000  
C 20.7200000   22.9660000   18.1320000  
O 21.5190000   23.6590000   17.6130000  
O 19.7310000   24.6310000   25.2460000  
O 17.7100000   22.7370000   24.8040000  
H 18.7230000   21.5930000   19.7010000  
H 19.5320000   21.6550000   17.9790000  
H 21.8470000   24.1440000   20.5950000  
H 18.9960000   24.3200000   25.7950000  
H 17.2710000   21.9200000   24.4910000  
H 21.1800000   24.9500000   23.0960000  
