76
010 
C  8.3780000   18.9500000   22.6680000  
C  7.8210000   17.8250000   23.3700000  
C  8.6520000   16.8330000   23.9330000  
C 10.0550000   16.8680000   23.7570000  
C 10.6530000   17.9620000   23.0730000  
C  9.8850000   18.9860000   22.4710000  
C  8.3460000   15.6600000   24.6550000  
C  9.6020000   15.1310000   24.9610000  
N 10.6270000   15.8300000   24.3080000  
O  8.5590000   13.4700000   26.1640000  
C  9.7240000   13.9520000   25.7800000  
O 10.7300000   13.4580000   26.1280000  
O 10.4100000   20.0530000   21.8020000  
O  7.6720000   19.9000000   22.3570000  
H  6.7850000   17.8800000   23.6940000  
H  7.3810000   15.3030000   24.9780000  
H  7.9670000   14.2590000   25.9430000  
H 11.3300000   20.0410000   22.0250000  
C 12.0790000   17.9490000   22.8400000  
C 12.6550000   17.2840000   21.7400000  
C 14.0140000   17.2560000   21.6190000  
C 14.9090000   17.9910000   22.4440000  
C 14.3150000   18.7490000   23.5070000  
C 12.9290000   18.7410000   23.6850000  
C 12.1010000   16.2720000   20.8140000  
C 13.2460000   15.6320000   20.2400000  
N 14.4090000   16.3070000   20.6560000  
O 11.8020000   14.2400000   19.1040000  
C 13.0730000   14.6230000   19.2070000  
O 13.9710000   14.2030000   18.4960000  
O 15.0290000   19.5520000   24.3380000  
O 12.2860000   19.4040000   24.6950000  
H 11.0370000   16.1750000   20.3960000  
H 11.2340000   14.5700000   19.8580000  
H 15.3680000   16.1220000   20.3890000  
H 15.8560000   19.0770000   24.4700000  
H 12.8740000   19.9770000   25.1520000  
C 16.3770000   18.0960000   22.2030000  
C 16.8260000   18.4140000   20.8980000  
C 18.1360000   18.3990000   20.5970000  
C 19.1780000   18.2690000   21.4410000  
C 18.8050000   18.0170000   22.7920000  
C 17.4050000   17.9150000   23.1420000  
C 16.1240000   18.7080000   19.6870000  
C 17.1290000   19.1130000   18.7410000  
N 18.4030000   18.8350000   19.3000000  
O 15.5240000   19.8510000   17.1520000  
C 16.8150000   19.7050000   17.4060000  
O 17.6450000   19.8620000   16.5960000  
O 19.7910000   17.8290000   23.7520000  
O 17.1320000   17.5270000   24.4840000  
H 15.1250000   19.0180000   19.6260000  
H 15.1570000   19.7700000   18.0260000  
H 19.3220000   19.0150000   18.8840000  
H 20.6940000   17.9090000   23.3510000  
H 18.0200000   17.6840000   24.8400000  
C 20.6650000   18.4260000   21.1160000  
C 21.1490000   19.7390000   20.6960000  
C 22.4690000   19.9920000   20.4650000  
C 23.4410000   18.9960000   20.5120000  
C 23.0210000   17.7120000   20.9180000  
C 21.6530000   17.3970000   21.1720000  
C 20.4380000   20.9810000   20.6820000  
C 21.3180000   21.9880000   20.3110000  
N 22.5680000   21.3270000   20.0940000  
O 19.7400000   23.7720000   20.6300000  
C 21.0390000   23.5110000   20.3300000  
O 21.8290000   24.4200000   20.1100000  
O 23.9750000   16.7870000   20.7900000  
O 21.3530000   16.0780000   21.6250000  
H 19.3880000   21.1780000   20.8660000  
H 19.4020000   22.8910000   20.6760000  
H 23.4250000   21.8230000   19.8590000  
H 23.6670000   15.9510000   21.2490000  
H 20.5200000   15.8510000   21.3070000  
H 24.4410000   19.1880000   20.1630000  
