76
010 
C 10.7480000   17.5570000   27.1190000  
C 10.3090000   18.8140000   27.7250000  
C 10.8780000   20.0210000   27.3430000  
C 11.9290000   20.0070000   26.3450000  
C 12.2990000   18.8100000   25.6510000  
C 11.7710000   17.6520000   26.0220000  
C 10.8570000   21.3590000   27.8320000  
C 11.7540000   22.0870000   26.9920000  
N 12.3350000   21.2470000   26.0590000  
O 11.3670000   24.0620000   28.1600000  
C 12.0980000   23.4370000   27.1570000  
O 13.0930000   23.9500000   26.5800000  
O 12.1200000   16.4640000   25.3830000  
O 10.3190000   16.4550000   27.4370000  
H  9.6020000   18.8100000   28.6320000  
H 10.2950000   21.8150000   28.6580000  
H 10.7700000   23.3720000   28.5500000  
H 12.6610000   16.8800000   24.7310000  
C 13.3170000   18.8860000   24.5850000  
C 14.5780000   18.2840000   24.7750000  
C 15.4180000   18.1800000   23.6970000  
C 15.2140000   18.6620000   22.3680000  
C 13.9830000   19.3650000   22.1610000  
C 13.0460000   19.3830000   23.2650000  
C 15.2480000   17.5890000   25.8630000  
C 16.3410000   16.9390000   25.3090000  
N 16.5150000   17.4520000   24.0260000  
O 16.9950000   15.7450000   27.3020000  
C 17.2600000   15.9650000   25.9670000  
O 18.1140000   15.3910000   25.2600000  
O 13.6020000   19.7930000   20.8970000  
O 11.8460000   19.9380000   23.0210000  
H 14.8720000   17.4530000   26.8730000  
H 16.1680000   16.2330000   27.4590000  
H 17.2270000   17.1070000   23.3670000  
H 14.4070000   19.9620000   20.3320000  
H 11.8580000   20.0210000   22.0990000  
C 16.2000000   18.3910000   21.3060000  
C 15.9940000   17.3030000   20.4460000  
C 16.8580000   17.0000000   19.4070000  
C 17.9680000   17.7970000   19.1250000  
C 18.1730000   18.8810000   20.0740000  
C 17.3500000   19.1480000   21.1450000  
C 14.9670000   16.2950000   20.3250000  
C 15.3190000   15.4270000   19.3050000  
N 16.4900000   15.8850000   18.7390000  
O 13.4120000   14.0480000   19.8040000  
C 14.5040000   14.2020000   18.9890000  
O 14.8570000   13.3350000   18.2130000  
O 19.1800000   19.7690000   19.7590000  
O 17.5330000   20.2720000   21.9080000  
H 14.1400000   16.2230000   21.0710000  
H 13.2340000   14.8950000   20.2790000  
H 17.0770000   15.4140000   18.0500000  
H 19.7480000   19.4480000   19.0540000  
H 18.1290000   20.7980000   21.3410000  
C 18.9420000   17.4690000   18.0760000  
C 18.5920000   17.6040000   16.6960000  
C 19.4830000   17.2350000   15.7310000  
C 20.6920000   16.5840000   16.0970000  
C 21.0710000   16.4840000   17.3560000  
C 20.1560000   16.7790000   18.4330000  
C 17.4870000   18.2030000   16.0070000  
C 17.7570000   18.1100000   14.6430000  
N 19.0340000   17.4850000   14.4890000  
O 15.7040000   18.9360000   13.8630000  
C 16.8990000   18.4230000   13.5250000  
O 17.2090000   18.3550000   12.3700000  
O 22.2830000   15.8720000   17.6380000  
O 20.6570000   16.6000000   19.6940000  
H 16.6260000   18.6490000   16.4130000  
H 15.7810000   19.2570000   14.7280000  
H 19.4950000   17.2730000   13.6190000  
H 22.4600000   15.8350000   18.5970000  
H 19.9470000   16.4730000   20.2850000  
H 21.4780000   16.2340000   15.3370000  
