76
010 
C 18.0420000   11.9640000   23.8080000  
C 17.6500000   11.5400000   25.1810000  
C 16.9040000   12.3170000   26.0460000  
C 16.4950000   13.6170000   25.6540000  
C 16.9380000   14.1830000   24.3660000  
C 17.6880000   13.3760000   23.4800000  
C 16.1570000   12.0340000   27.2240000  
C 15.4760000   13.1910000   27.5320000  
N 15.7300000   14.1700000   26.5970000  
O 14.6360000   12.2680000   29.6380000  
C 14.6750000   13.3560000   28.8070000  
O 14.0620000   14.3810000   29.1280000  
O 17.9790000   13.7200000   22.2040000  
O 18.6320000   11.2270000   23.0510000  
H 17.8600000   10.5100000   25.3620000  
H 16.2220000   11.1200000   27.8830000  
H 15.1020000   11.6330000   29.1270000  
H 17.6940000   14.6860000   22.1180000  
C 16.5200000   15.5200000   23.9530000  
C 17.4310000   16.5940000   23.8300000  
C 17.0490000   17.7750000   23.1980000  
C 15.8060000   17.9450000   22.5300000  
C 14.8730000   16.8690000   22.6900000  
C 15.2140000   15.6280000   23.3630000  
C 18.7690000   16.7600000   24.1930000  
C 19.2130000   18.0180000   23.7030000  
N 18.0840000   18.6580000   23.1740000  
O 21.4740000   17.8250000   24.3930000  
C 20.5600000   18.6030000   23.7990000  
O 20.8930000   19.6860000   23.3320000  
O 13.6540000   16.8640000   21.9890000  
O 14.3800000   14.4890000   23.4010000  
H 19.4060000   15.9780000   24.5860000  
H 20.9610000   17.1180000   24.7630000  
H 17.9250000   19.6150000   22.8750000  
H 13.8940000   17.4100000   21.1900000  
H 13.5400000   14.8510000   23.0240000  
C 15.4110000   19.1620000   21.7560000  
C 15.5510000   19.1920000   20.3680000  
C 15.0880000   20.2050000   19.6390000  
C 14.5350000   21.3690000   20.2080000  
C 14.4320000   21.3850000   21.6470000  
C 14.8800000   20.3240000   22.3960000  
C 15.9080000   18.1830000   19.3990000  
C 15.7190000   18.7370000   18.1460000  
N 15.3160000   20.0310000   18.3300000  
O 16.8840000   17.0670000   16.9470000  
C 16.3430000   18.2920000   16.9070000  
O 16.3550000   18.9740000   15.8530000  
O 13.8290000   22.4680000   22.2380000  
O 14.7880000   20.3240000   23.7880000  
H 16.3190000   17.2030000   19.6080000  
H 16.4370000   16.8220000   17.8080000  
H 15.3230000   20.8130000   17.6410000  
H 13.6440000   23.0510000   21.4230000  
H 14.1620000   21.0400000   24.0950000  
C 14.1130000   22.4410000   19.3450000  
C 13.1040000   22.2070000   18.3620000  
C 12.8190000   23.1090000   17.4120000  
C 13.3230000   24.4130000   17.4210000  
C 14.3170000   24.8030000   18.3900000  
C 14.7820000   23.7120000   19.2960000  
C 12.2770000   21.0480000   18.1270000  
C 11.4730000   21.3610000   17.0460000  
N 11.8940000   22.5630000   16.5220000  
O 10.4880000   19.0940000   16.9420000  
C 10.4630000   20.4090000   16.5370000  
O  9.5760000   20.7210000   15.7540000  
O 14.8830000   26.0820000   18.3240000  
O 15.8550000   23.8570000   20.1040000  
H 12.1370000   20.1300000   18.7170000  
H 11.2910000   19.0990000   17.4580000  
H 11.5300000   23.0520000   15.6900000  
H 14.2490000   26.6790000   17.8800000  
H 16.4500000   24.5530000   19.8430000  
H 13.0700000   25.0930000   16.5530000  
