76
010 
C 11.7570000   19.1060000   27.9530000  
C 12.5950000   19.8650000   28.9010000  
C 13.8300000   20.1130000   28.5760000  
C 14.3940000   19.7990000   27.3580000  
C 13.6680000   19.1410000   26.3660000  
C 12.3660000   18.8460000   26.6350000  
C 14.8190000   20.8520000   29.2260000  
C 15.9200000   20.9430000   28.4080000  
N 15.6070000   20.2880000   27.1820000  
O 17.2580000   22.0320000   30.0100000  
C 17.2410000   21.5070000   28.7540000  
O 18.1620000   21.6530000   27.9980000  
O 11.4970000   18.2660000   25.7510000  
O 10.5840000   18.8340000   28.2370000  
H 12.1830000   20.0350000   29.8540000  
H 14.7540000   21.1270000   30.2530000  
H 16.4050000   21.7860000   30.4210000  
H 11.9070000   18.1910000   24.8740000  
C 14.2280000   18.9120000   25.0650000  
C 14.7850000   17.6720000   24.7930000  
C 15.1210000   17.2950000   23.5010000  
C 15.0130000   18.1560000   22.3560000  
C 14.3370000   19.4030000   22.6280000  
C 14.0310000   19.7370000   23.9950000  
C 15.0260000   16.4470000   25.5970000  
C 15.5530000   15.4840000   24.7640000  
N 15.5610000   15.9800000   23.5100000  
O 15.7350000   13.7260000   26.3850000  
C 16.0770000   14.1120000   25.1360000  
O 16.6790000   13.3480000   24.4080000  
O 14.2240000   20.2490000   21.5550000  
O 13.3280000   20.8910000   24.2100000  
H 14.9330000   16.4370000   26.6360000  
H 15.3090000   14.4630000   26.8440000  
H 15.9200000   15.5960000   22.6900000  
H 14.5360000   19.7520000   20.7630000  
H 13.1910000   21.3640000   23.3810000  
C 15.5430000   17.7890000   20.9940000  
C 14.6980000   17.8060000   19.8350000  
C 15.1330000   17.4060000   18.6070000  
C 16.4290000   17.0590000   18.3660000  
C 17.3460000   17.0870000   19.4810000  
C 16.9460000   17.5220000   20.7640000  
C 13.2700000   17.9490000   19.7170000  
C 12.9070000   17.5300000   18.4550000  
N 14.0840000   17.3610000   17.6980000  
O 10.4590000   17.7310000   18.8050000  
C 11.4660000   17.4880000   17.9350000  
O 11.3100000   17.1900000   16.7800000  
O 18.6800000   16.7330000   19.3740000  
O 17.8480000   17.4760000   21.7350000  
H 12.6150000   18.0170000   20.5770000  
H 10.9680000   17.9870000   19.6460000  
H 14.1800000   17.1520000   16.6930000  
H 19.0810000   16.8280000   18.4990000  
H 18.6350000   17.1680000   21.2950000  
C 16.9540000   16.6760000   17.0190000  
C 17.8050000   17.6500000   16.3570000  
C 18.2400000   17.4880000   15.1050000  
C 17.8800000   16.3920000   14.3510000  
C 16.9440000   15.4770000   14.8600000  
C 16.4900000   15.6170000   16.2250000  
C 18.3210000   18.9390000   16.8050000  
C 19.0550000   19.4910000   15.7330000  
N 19.0510000   18.4570000   14.7270000  
O 19.3940000   21.5790000   16.6740000  
C 19.8330000   20.7060000   15.7600000  
O 20.7220000   21.0510000   15.0010000  
O 16.6650000   14.3350000   14.1790000  
O 15.7390000   14.6480000   16.9040000  
H 18.3380000   19.3930000   17.8150000  
H 18.4940000   21.2110000   16.8290000  
H 19.4990000   18.5790000   13.8180000  
H 15.9440000   13.8910000   14.6440000  
H 15.3090000   15.0050000   17.7090000  
H 18.1970000   16.2010000   13.3180000  
