76
010 
C 10.0100000   16.3770000   26.6090000  
C  9.1620000   17.6160000   26.5150000  
C  9.6420000   18.6430000   25.7670000  
C 10.8400000   18.6460000   25.0530000  
C 11.7270000   17.5400000   25.1440000  
C 11.2850000   16.4670000   25.9150000  
C  9.0040000   19.9070000   25.4030000  
C  9.9200000   20.5280000   24.5230000  
N 11.0670000   19.7690000   24.3910000  
O  8.6950000   22.6200000   24.1950000  
C  9.7930000   21.8770000   23.9010000  
O 10.5010000   22.2220000   22.9700000  
O 11.9910000   15.3340000   25.9120000  
O  9.6130000   15.3950000   27.1470000  
H  8.1280000   17.6150000   26.9540000  
H  8.0480000   20.2790000   25.6770000  
H  8.0960000   22.0310000   24.7370000  
H 12.7710000   15.4180000   25.2910000  
C 12.9370000   17.5010000   24.4270000  
C 13.8630000   18.5400000   24.5570000  
C 14.8700000   18.7510000   23.6430000  
C 15.1270000   17.9730000   22.5380000  
C 14.2120000   16.8710000   22.4300000  
C 13.1320000   16.6540000   23.3110000  
C 13.8830000   19.7300000   25.3730000  
C 14.8220000   20.6250000   24.8640000  
N 15.4640000   19.9730000   23.7710000  
O 14.3030000   22.3710000   26.4020000  
C 15.0580000   21.9910000   25.3620000  
O 15.9500000   22.7110000   24.8680000  
O 14.4610000   16.0570000   21.3430000  
O 12.3730000   15.4790000   23.1390000  
H 13.3130000   19.9480000   26.2120000  
H 13.8890000   21.5600000   26.7040000  
H 16.1970000   20.4230000   23.1940000  
H 15.3610000   16.2040000   21.1160000  
H 12.6970000   15.1490000   22.2660000  
C 16.2890000   18.2110000   21.6660000  
C 17.3050000   17.2360000   21.4860000  
C 18.2470000   17.4070000   20.5220000  
C 18.3540000   18.4750000   19.6220000  
C 17.4090000   19.4770000   19.7400000  
C 16.3970000   19.3570000   20.7700000  
C 17.4040000   15.9260000   22.0500000  
C 18.5530000   15.3880000   21.4610000  
N 19.0350000   16.3000000   20.4730000  
O 18.5720000   13.3830000   22.8920000  
C 19.1070000   14.1050000   21.8330000  
O 20.2020000   13.7190000   21.3620000  
O 17.3420000   20.4730000   18.7690000  
O 15.5120000   20.3590000   20.8790000  
H 16.9140000   15.4760000   22.9230000  
H 17.7700000   13.7930000   23.0900000  
H 19.7940000   16.1630000   19.7800000  
H 17.7450000   19.9450000   17.9860000  
H 15.7020000   20.9920000   20.1720000  
C 19.4000000   18.5500000   18.5930000  
C 19.2050000   17.7690000   17.3770000  
C 20.0860000   17.8100000   16.3540000  
C 21.2990000   18.4470000   16.4440000  
C 21.4630000   19.3240000   17.5810000  
C 20.5530000   19.4290000   18.6870000  
C 18.1900000   16.7950000   16.9780000  
C 18.5790000   16.3600000   15.7310000  
N 19.7390000   16.9870000   15.3110000  
O 16.7980000   14.7890000   15.4830000  
C 17.8610000   15.3210000   14.8840000  
O 18.2000000   14.9610000   13.7640000  
O 22.5700000   20.1490000   17.6450000  
O 20.7670000   20.1400000   19.8070000  
H 17.3530000   16.3490000   17.5540000  
H 16.8360000   15.0710000   16.4060000  
H 20.3840000   16.8830000   14.4600000  
H 22.5560000   20.6580000   18.4620000  
H 20.1410000   19.8380000   20.4890000  
H 21.9990000   18.5770000   15.5270000  
