76
010 
C 15.7180000   10.9580000   23.7880000  
C 14.7810000   10.2020000   22.9800000  
C 14.1850000   10.8240000   21.9160000  
C 14.2870000   12.1760000   21.6490000  
C 15.1480000   13.0050000   22.4240000  
C 15.8490000   12.3850000   23.4550000  
C 13.3590000   10.2800000   20.8930000  
C 13.0530000   11.3970000   20.0910000  
N 13.6210000   12.5250000   20.5500000  
O 11.7780000   10.1430000   18.5930000  
C 12.0900000   11.3420000   18.9850000  
O 11.7910000   12.2960000   18.3670000  
O 16.7430000   13.0380000   24.1510000  
O 16.2100000   10.3320000   24.7240000  
H 14.6850000    9.1280000   23.0620000  
H 13.0100000    9.2560000   20.8020000  
H 12.0810000    9.4670000   19.2400000  
H 16.6900000   14.0270000   23.8950000  
C 15.4160000   14.4680000   22.1760000  
C 14.4750000   15.4350000   22.3550000  
C 14.6030000   16.7330000   21.9240000  
C 15.7730000   17.2550000   21.2490000  
C 16.7330000   16.2090000   20.9230000  
C 16.5510000   14.8870000   21.3790000  
C 13.1500000   15.3380000   22.9240000  
C 12.4830000   16.5660000   22.7940000  
N 13.3760000   17.4430000   22.1230000  
O 10.6540000   15.9430000   23.9960000  
C 11.1860000   16.8950000   23.2360000  
O 10.6150000   17.9650000   22.9910000  
O 17.9020000   16.5160000   20.2830000  
O 17.6460000   13.9980000   21.3170000  
H 12.7370000   14.5500000   23.5330000  
H 11.1920000   15.1400000   23.8620000  
H 13.1260000   18.4450000   21.9340000  
H 17.5950000   17.2530000   19.7480000  
H 18.4560000   14.4650000   21.0920000  
C 15.9190000   18.6930000   20.9950000  
C 15.8570000   19.5280000   22.0520000  
C 15.8840000   20.8770000   21.8370000  
C 16.2310000   21.5100000   20.6370000  
C 16.2210000   20.6760000   19.5170000  
C 16.2190000   19.2590000   19.6830000  
C 15.6030000   19.3920000   23.4810000  
C 15.5650000   20.6830000   24.0930000  
N 15.7730000   21.5870000   23.0490000  
O 15.2360000   20.0820000   26.3350000  
C 15.3250000   21.0880000   25.4480000  
O 15.1530000   22.2260000   25.8430000  
O 16.4200000   21.2530000   18.2330000  
O 16.2310000   18.4160000   18.6130000  
H 15.4710000   18.4100000   23.9680000  
H 15.2670000   19.2430000   25.8290000  
H 15.6210000   22.6380000   23.1790000  
H 16.8490000   22.0990000   18.3510000  
H 16.4850000   18.9840000   17.9000000  
C 16.3730000   23.0220000   20.5150000  
C 17.4640000   23.6510000   21.0660000  
C 17.6100000   25.0100000   20.9370000  
C 16.6530000   25.8730000   20.3400000  
C 15.4270000   25.2870000   19.9110000  
C 15.3460000   23.8760000   19.9110000  
C 18.6530000   23.1720000   21.7610000  
C 19.4690000   24.2780000   21.8680000  
N 18.8840000   25.4090000   21.3330000  
O 21.2250000   23.1660000   23.0920000  
C 20.8480000   24.3160000   22.4680000  
O 21.5450000   25.3440000   22.5670000  
O 14.4460000   26.1110000   19.3820000  
O 14.2500000   23.2840000   19.3010000  
H 18.8650000   22.1650000   22.0660000  
H 20.4310000   22.5220000   22.9770000  
H 19.3090000   26.3160000   21.0770000  
H 13.7230000   25.5470000   19.1640000  
H 14.2790000   22.3470000   19.6210000  
H 16.7490000   26.9240000   20.1830000  
