76
010 
C 10.5560000   18.6020000   27.1950000  
C  9.1970000   18.1960000   26.6900000  
C  9.0860000   17.5330000   25.5040000  
C 10.1690000   17.3500000   24.6390000  
C 11.4920000   17.8900000   24.9820000  
C 11.6520000   18.4950000   26.2280000  
C  7.9260000   17.0420000   24.8340000  
C  8.3700000   16.6950000   23.5770000  
N  9.7500000   16.8830000   23.5020000  
O  6.1930000   16.1730000   22.8010000  
C  7.4860000   16.2980000   22.4550000  
O  7.9050000   16.1970000   21.2880000  
O 12.7820000   19.1530000   26.5690000  
O 10.6670000   19.1640000   28.2840000  
H  8.3640000   18.4610000   27.2540000  
H  6.9070000   17.1310000   25.2280000  
H  6.0130000   16.5130000   23.6820000  
H 13.4770000   18.6750000   26.0820000  
C 12.6660000   17.8340000   24.0130000  
C 12.9200000   18.8980000   23.1580000  
C 13.8990000   18.7450000   22.1350000  
C 14.7650000   17.6670000   22.0000000  
C 14.4960000   16.5390000   22.8050000  
C 13.4490000   16.6550000   23.7990000  
C 12.2780000   20.1890000   22.9620000  
C 13.0670000   20.8320000   21.9690000  
N 13.9990000   19.9250000   21.4270000  
O 11.7690000   22.7570000   22.1590000  
C 12.7970000   22.2370000   21.5100000  
O 13.3980000   22.7820000   20.6230000  
O 15.2160000   15.4240000   22.7240000  
O 13.2210000   15.5160000   24.5590000  
H 11.5810000   20.6680000   23.6440000  
H 11.4980000   22.0110000   22.7220000  
H 14.6670000   19.9930000   20.6660000  
H 16.0570000   15.6670000   22.3330000  
H 12.9740000   14.7590000   24.0040000  
C 16.0170000   17.7530000   21.1470000  
C 17.2540000   17.8800000   21.7800000  
C 18.3870000   18.1660000   21.0170000  
C 18.4300000   18.2590000   19.6450000  
C 17.2360000   17.9830000   18.9520000  
C 16.0270000   17.7870000   19.7200000  
C 17.7430000   17.9690000   23.1630000  
C 19.0040000   18.4440000   23.1530000  
N 19.4170000   18.4810000   21.8570000  
O 19.2610000   19.0040000   25.4830000  
C 19.8520000   18.9400000   24.2450000  
O 20.9940000   19.2520000   24.0710000  
O 17.1920000   17.8730000   17.5970000  
O 14.8330000   17.8660000   19.0360000  
H 17.1120000   17.8430000   24.0570000  
H 18.3840000   18.5210000   25.3740000  
H 20.3590000   18.7660000   21.6500000  
H 17.9160000   18.4370000   17.2790000  
H 15.0100000   17.8030000   18.0490000  
C 19.6670000   18.7130000   18.8760000  
C 20.4480000   17.6550000   18.4300000  
C 21.6090000   17.9910000   17.7910000  
C 22.1210000   19.2610000   17.7280000  
C 21.3300000   20.3320000   18.1230000  
C 20.0480000   20.0920000   18.7160000  
C 20.3570000   16.1960000   18.4570000  
C 21.4990000   15.7060000   17.7580000  
N 22.2640000   16.7940000   17.3660000  
O 20.7830000   13.4990000   17.8440000  
C 21.7400000   14.2940000   17.4650000  
O 22.7100000   13.8490000   16.8470000  
O 21.5740000   21.6350000   17.7120000  
O 19.2090000   21.1100000   19.0680000  
H 19.5330000   15.5750000   18.8100000  
H 20.3500000   14.1310000   18.4070000  
H 23.1560000   16.7730000   16.8550000  
H 20.8800000   22.1770000   18.1230000  
H 18.3400000   20.8770000   19.3620000  
H 22.9620000   19.3970000   17.0130000  
