76
010 
C 13.9200000   11.4490000   24.3890000  
C 14.9330000   11.0750000   25.4090000  
C 16.0700000   11.9100000   25.5890000  
C 16.1660000   13.1600000   24.9610000  
C 15.1470000   13.6010000   24.0680000  
C 14.0610000   12.8400000   23.7980000  
C 17.2130000   11.8880000   26.4570000  
C 17.9560000   13.0130000   26.1700000  
N 17.2340000   13.8850000   25.3150000  
O 19.8290000   12.4350000   27.5820000  
C 19.2820000   13.3460000   26.6990000  
O 19.9420000   14.2940000   26.3870000  
O 13.0260000   13.2900000   23.0480000  
O 13.0020000   10.7600000   24.0420000  
H 14.8760000   10.1360000   26.0200000  
H 17.4560000   10.9850000   27.0400000  
H 19.2140000   11.7220000   27.6890000  
H 13.1990000   14.2050000   22.8280000  
C 15.2400000   14.9650000   23.6160000  
C 15.8930000   15.1410000   22.4180000  
C 16.1690000   16.3910000   21.9010000  
C 15.8940000   17.6110000   22.5790000  
C 15.1350000   17.3850000   23.7450000  
C 14.7690000   16.0770000   24.2850000  
C 16.6940000   14.2510000   21.6910000  
C 17.2630000   14.9760000   20.6470000  
N 16.8840000   16.3190000   20.7570000  
O 18.1340000   13.0690000   19.4510000  
C 17.9570000   14.3900000   19.4540000  
O 18.3410000   14.9700000   18.4890000  
O 14.6220000   18.4200000   24.4640000  
O 13.9820000   15.8850000   25.4090000  
H 16.7940000   13.1870000   21.8550000  
H 17.5370000   12.8250000   20.2010000  
H 16.9620000   17.0580000   20.0820000  
H 15.1210000   19.2250000   24.2150000  
H 13.9290000   16.7600000   25.8840000  
C 15.9710000   19.0350000   21.9330000  
C 15.2660000   19.2790000   20.7820000  
C 15.2370000   20.4870000   20.1410000  
C 15.9590000   21.6560000   20.5820000  
C 16.6630000   21.3860000   21.8150000  
C 16.6370000   20.1420000   22.4850000  
C 14.3590000   18.4320000   20.1240000  
C 13.7860000   19.2580000   19.1310000  
N 14.4630000   20.4740000   18.9910000  
O 12.5030000   17.4540000   18.1000000  
C 12.7450000   18.7760000   18.1520000  
O 12.2610000   19.5800000   17.3530000  
O 17.3480000   22.4140000   22.4570000  
O 17.3470000   20.0530000   23.6220000  
H 13.9260000   17.4950000   20.3320000  
H 13.1340000   17.0820000   18.7260000  
H 14.3210000   21.1850000   18.3500000  
H 17.2340000   23.2850000   21.9860000  
H 18.2920000   20.3590000   23.5330000  
C 15.9680000   22.8750000   19.8940000  
C 14.7740000   23.5960000   19.6420000  
C 14.7060000   24.7670000   18.9200000  
C 15.8440000   25.3740000   18.4380000  
C 17.1230000   24.7740000   18.7170000  
C 17.2010000   23.4970000   19.4320000  
C 13.4280000   23.2880000   19.9190000  
C 12.6000000   24.2580000   19.4350000  
N 13.4160000   25.2470000   18.8590000  
O 10.4110000   23.3170000   19.9110000  
C 11.0600000   24.2160000   19.2680000  
O 10.4170000   25.0680000   18.7050000  
O 18.2650000   25.3620000   18.1510000  
O 18.4530000   22.9120000   19.5470000  
H 13.0470000   22.3690000   20.3510000  
H 11.1250000   22.6870000   20.1880000  
H 13.0280000   26.0520000   18.3740000  
H 18.1690000   26.0650000   17.4630000  
H 19.0780000   23.5910000   19.2310000  
H 15.8230000   26.2440000   17.8780000  
