76
010 
C 18.4660000   19.4910000   28.2810000  
C 18.6340000   18.2290000   29.0400000  
C 18.3920000   17.0240000   28.4480000  
C 17.8650000   16.9230000   27.1130000  
C 17.6290000   18.1360000   26.3270000  
C 17.9880000   19.3740000   26.8550000  
C 18.5570000   15.6830000   28.9090000  
C 18.0780000   14.9500000   27.8600000  
N 17.7030000   15.6930000   26.7440000  
O 18.3230000   13.0250000   29.1370000  
C 17.9060000   13.4740000   27.9640000  
O 17.3900000   12.8010000   27.0990000  
O 17.8460000   20.5170000   26.1950000  
O 18.7210000   20.5460000   28.8450000  
H 19.1530000   18.2580000   30.0440000  
H 18.9370000   15.3430000   29.9260000  
H 18.5550000   13.7510000   29.6910000  
H 17.6490000   20.1790000   25.2890000  
C 17.1320000   17.9680000   24.9880000  
C 15.7830000   17.6310000   24.7750000  
C 15.2770000   17.7170000   23.5500000  
C 15.9140000   18.1360000   22.4150000  
C 17.3170000   18.4670000   22.6280000  
C 17.9510000   18.2120000   23.9110000  
C 14.6980000   17.2200000   25.6850000  
C 13.5360000   17.1350000   24.9030000  
N 13.9390000   17.4450000   23.5900000  
O 12.0770000   16.4030000   26.5810000  
C 12.1940000   16.6210000   25.2420000  
O 11.3270000   16.3300000   24.4920000  
O 18.0930000   18.9250000   21.5980000  
O 19.3340000   18.2910000   24.0220000  
H 14.8050000   16.9250000   26.7130000  
H 12.9560000   16.5150000   27.0150000  
H 13.3260000   17.3340000   22.7570000  
H 17.5170000   18.8650000   20.7850000  
H 19.6350000   18.2630000   23.0540000  
C 15.3810000   18.2200000   21.0060000  
C 14.4300000   19.1690000   20.5910000  
C 13.8580000   19.1170000   19.3290000  
C 14.4260000   18.3020000   18.2770000  
C 15.5330000   17.4440000   18.6540000  
C 15.9480000   17.4080000   19.9880000  
C 13.7430000   20.2230000   21.2920000  
C 13.0340000   20.9800000   20.3600000  
N 13.0990000   20.2530000   19.1370000  
O 12.3970000   22.6990000   21.8190000  
C 12.3050000   22.1700000   20.6190000  
O 11.8450000   22.8800000   19.7440000  
O 15.9960000   16.4040000   17.8460000  
O 16.9390000   16.4920000   20.2940000  
H 14.0140000   20.6150000   22.3020000  
H 12.8740000   22.0090000   22.4070000  
H 12.7640000   20.4740000   18.2560000  
H 15.8170000   16.7410000   16.9390000  
H 17.0210000   15.8630000   19.5340000  
C 13.7570000   18.3450000   16.9310000  
C 14.5330000   18.5540000   15.7830000  
C 14.0750000   18.5220000   14.4930000  
C 12.7000000   18.3020000   14.2740000  
C 11.7980000   18.1330000   15.3470000  
C 12.3220000   18.0390000   16.6790000  
C 15.9060000   18.8850000   15.7570000  
C 16.2190000   19.1180000   14.4450000  
N 15.0950000   18.7550000   13.6430000  
O 18.6030000   19.3760000   14.7280000  
C 17.5970000   19.4230000   13.8780000  
O 17.7940000   19.5490000   12.6670000  
O 10.5050000   17.9890000   15.1190000  
O 11.5010000   17.8610000   17.7940000  
H 16.5790000   19.1970000   16.5270000  
H 18.1340000   19.0720000   15.5030000  
H 15.0700000   18.6420000   12.6140000  
H 10.3390000   18.4740000   14.2550000  
H 10.5660000   17.5870000   17.5150000  
H 12.3500000   18.3580000   13.2830000  
