76
010 
C 12.5740000   19.9250000   28.4510000  
C 13.7860000   19.8320000   29.2920000  
C 14.9920000   19.6510000   28.7070000  
C 15.2550000   19.3740000   27.3670000  
C 14.1230000   19.5540000   26.4680000  
C 12.8420000   19.7880000   26.9650000  
C 16.2260000   19.6150000   29.3240000  
C 17.1080000   19.1800000   28.3650000  
N 16.4980000   19.1580000   27.1120000  
O 18.9090000   18.6240000   29.8130000  
C 18.4670000   18.7290000   28.5420000  
O 19.0680000   18.3670000   27.5380000  
O 11.6980000   19.8280000   26.1350000  
O 11.4770000   20.1300000   28.9140000  
H 13.6790000   20.1930000   30.2760000  
H 16.4730000   19.6780000   30.3250000  
H 18.2950000   19.0410000   30.4050000  
H 12.0810000   19.9770000   25.1990000  
C 14.3740000   19.2160000   25.0500000  
C 14.5060000   17.9170000   24.6950000  
C 14.6970000   17.4950000   23.4090000  
C 14.6270000   18.3440000   22.2900000  
C 14.3660000   19.7120000   22.6900000  
C 14.2910000   20.2180000   24.0480000  
C 14.4370000   16.7270000   25.5080000  
C 14.7410000   15.6520000   24.6420000  
N 14.9500000   16.1560000   23.2960000  
O 14.8990000   13.9890000   26.2890000  
C 14.8940000   14.2000000   24.9540000  
O 15.0230000   13.2940000   24.1010000  
O 14.2280000   20.6730000   21.6920000  
O 14.1670000   21.5320000   24.3700000  
H 14.3670000   16.6840000   26.5560000  
H 14.8380000   14.8930000   26.6440000  
H 15.2610000   15.6450000   22.4660000  
H 14.7610000   20.2670000   20.9850000  
H 14.4740000   22.0620000   23.6790000  
C 15.1200000   17.9110000   20.9580000  
C 14.2660000   17.8850000   19.8820000  
C 14.7140000   17.4600000   18.6520000  
C 16.0930000   17.2660000   18.3360000  
C 16.9870000   17.2780000   19.4340000  
C 16.5040000   17.6270000   20.7170000  
C 12.8260000   18.1380000   19.7530000  
C 12.5230000   17.9390000   18.4160000  
N 13.6480000   17.6170000   17.7380000  
O 10.0910000   17.9870000   18.6520000  
C 11.1470000   18.0080000   17.8230000  
O 10.9790000   17.9580000   16.6340000  
O 18.3090000   17.0000000   19.2750000  
O 17.3580000   17.6430000   21.7900000  
H 12.1170000   18.4000000   20.5770000  
H 10.4870000   18.1300000   19.5660000  
H 13.7300000   17.2320000   16.7670000  
H 18.2700000   16.6530000   18.3250000  
H 18.3190000   17.4630000   21.5710000  
C 16.5680000   17.0060000   16.8980000  
C 17.3910000   17.9740000   16.3220000  
C 18.0140000   17.6950000   15.0950000  
C 17.7690000   16.5120000   14.3930000  
C 16.8320000   15.5860000   14.8650000  
C 16.2320000   15.8670000   16.1670000  
C 18.0080000   19.2510000   16.7190000  
C 18.9500000   19.5900000   15.7440000  
N 19.0290000   18.6360000   14.8150000  
O 19.7050000   21.5300000   16.9080000  
C 19.8210000   20.7940000   15.7640000  
O 20.5310000   21.1710000   14.8680000  
O 16.4250000   14.4600000   14.1770000  
O 15.3860000   14.8590000   16.6510000  
H 17.8070000   19.8810000   17.6120000  
H 19.1870000   20.9520000   17.4340000  
H 19.4490000   18.7080000   13.9180000  
H 15.6420000   14.0710000   14.5610000  
H 15.2840000   15.0330000   17.6360000  
H 18.2710000   16.2610000   13.5150000  
