76
010 
C 18.7690000   12.0320000   24.8290000  
C 17.9560000   11.9160000   26.0370000  
C 16.7740000   12.5930000   26.1840000  
C 16.2900000   13.4170000   25.1380000  
C 17.0860000   13.6470000   23.9800000  
C 18.2670000   12.9940000   23.8100000  
C 15.9380000   12.8220000   27.2430000  
C 14.9360000   13.6440000   26.8380000  
N 15.2050000   14.0690000   25.5320000  
O 13.8720000   13.7520000   29.0260000  
C 13.8710000   14.1640000   27.7400000  
O 12.9720000   14.9660000   27.3750000  
O 19.0870000   13.1470000   22.7130000  
O 19.8070000   11.3930000   24.6810000  
H 18.2910000   11.2880000   26.8170000  
H 16.0130000   12.2590000   28.2060000  
H 14.7770000   13.3520000   29.1290000  
H 18.6210000   13.6510000   21.9530000  
C 16.6860000   14.8200000   23.2220000  
C 17.5990000   15.8760000   23.0250000  
C 17.2210000   17.0320000   22.4450000  
C 15.9920000   17.2750000   21.8500000  
C 15.0720000   16.1520000   21.9660000  
C 15.4490000   14.9680000   22.6170000  
C 18.9520000   16.1430000   23.5360000  
C 19.2970000   17.4810000   23.1950000  
N 18.2060000   17.9850000   22.4270000  
O 21.2260000   17.6480000   24.5870000  
C 20.5030000   18.2720000   23.6560000  
O 20.7840000   19.4390000   23.3470000  
O 13.7890000   16.1720000   21.4460000  
O 14.5830000   13.9110000   22.4830000  
H 19.4210000   15.5980000   24.2830000  
H 20.9570000   16.7290000   24.6080000  
H 18.1320000   18.9750000   22.1120000  
H 13.7170000   16.9690000   20.8660000  
H 14.1210000   14.2210000   21.6950000  
C 15.5760000   18.5160000   21.1580000  
C 15.2280000   18.5310000   19.8320000  
C 15.0690000   19.7190000   19.1470000  
C 14.9070000   20.9760000   19.8330000  
C 15.1100000   20.9590000   21.2390000  
C 15.5300000   19.7770000   21.8940000  
C 15.0690000   17.4460000   18.8570000  
C 14.8200000   18.0990000   17.6100000  
N 14.7750000   19.4860000   17.8230000  
O 14.7150000   16.1120000   16.4110000  
C 14.4380000   17.4260000   16.3720000  
O 13.9780000   17.8890000   15.3710000  
O 15.0120000   22.2180000   21.8530000  
O 15.7860000   19.8500000   23.2660000  
H 15.0750000   16.3350000   18.9740000  
H 15.2800000   15.9500000   17.1990000  
H 14.3800000   20.1920000   17.1220000  
H 14.6440000   22.8300000   21.1360000  
H 15.5750000   20.7300000   23.5620000  
C 14.6690000   22.3230000   19.2150000  
C 13.3830000   22.9050000   19.1730000  
C 13.1830000   24.1790000   18.7270000  
C 14.1990000   24.9310000   18.2250000  
C 15.5230000   24.4080000   18.2900000  
C 15.7410000   23.0630000   18.6950000  
C 12.1500000   22.3020000   19.5680000  
C 11.2140000   23.2620000   19.2830000  
N 11.8560000   24.4010000   18.7470000  
O  9.3450000   21.9870000   20.0160000  
C  9.7210000   23.2120000   19.4950000  
O  8.8510000   23.9750000   19.2310000  
O 16.5890000   25.2450000   17.8140000  
O 16.9900000   22.5430000   18.7740000  
H 11.9830000   21.3100000   19.9360000  
H 10.1570000   21.5480000   20.2220000  
H 11.4190000   25.3120000   18.6830000  
H 16.1920000   26.0090000   17.4610000  
H 17.5940000   23.1340000   18.3270000  
H 13.9970000   25.8570000   17.7460000  
