76
010 
C 15.4800000   20.5610000   29.0770000  
C 15.9820000   19.3440000   29.7820000  
C 16.2910000   18.2590000   29.0000000  
C 16.4040000   18.3180000   27.5560000  
C 15.9410000   19.4660000   26.8290000  
C 15.4620000   20.4920000   27.5900000  
C 16.5110000   16.9100000   29.3110000  
C 16.7640000   16.2530000   28.1100000  
N 16.6850000   17.1350000   27.0490000  
O 17.5370000   14.3020000   29.2270000  
C 17.2020000   14.9320000   28.0440000  
O 17.3000000   14.3410000   26.9860000  
O 15.0670000   21.6620000   26.9960000  
O 15.1100000   21.5270000   29.7630000  
H 16.0840000   19.3230000   30.8360000  
H 16.4460000   16.4260000   30.3140000  
H 17.3840000   15.0240000   29.8620000  
H 15.2520000   21.5580000   26.1190000  
C 15.7690000   19.4070000   25.4070000  
C 14.7730000   18.6610000   24.8030000  
C 14.6800000   18.3910000   23.4710000  
C 15.6580000   18.8760000   22.5270000  
C 16.6120000   19.7940000   23.0510000  
C 16.6640000   20.0350000   24.4510000  
C 13.7260000   17.8600000   25.3880000  
C 13.1920000   17.0330000   24.3490000  
N 13.7470000   17.4590000   23.1380000  
O 11.4760000   15.8230000   25.7310000  
C 12.0370000   16.1070000   24.4880000  
O 11.6470000   15.5950000   23.4990000  
O 17.4600000   20.4430000   22.2060000  
O 17.5930000   20.9130000   24.9640000  
H 13.4040000   17.7950000   26.4620000  
H 12.0470000   16.2890000   26.3760000  
H 13.5200000   17.1210000   22.1550000  
H 17.7130000   19.7480000   21.5430000  
H 18.1210000   21.1780000   24.1800000  
C 15.6810000   18.4180000   21.0850000  
C 14.5630000   18.6080000   20.2150000  
C 14.6800000   18.1550000   18.9280000  
C 15.7370000   17.4410000   18.3770000  
C 16.8610000   17.3740000   19.1840000  
C 16.8540000   17.9130000   20.5110000  
C 13.1780000   19.0500000   20.2870000  
C 12.5920000   18.8740000   19.0210000  
N 13.5600000   18.3810000   18.1860000  
O 10.5660000   19.8620000   19.5940000  
C 11.2960000   19.3620000   18.5820000  
O 10.8600000   19.1210000   17.5310000  
O 17.9650000   16.7350000   18.7120000  
O 17.9550000   17.7620000   21.3490000  
H 12.7210000   19.5270000   21.1480000  
H 10.9610000   19.4770000   20.4210000  
H 13.4440000   18.2810000   17.2000000  
H 17.7620000   16.0860000   18.0600000  
H 18.7420000   17.4960000   20.8310000  
C 15.8220000   16.9780000   16.9220000  
C 16.6530000   17.7180000   16.0810000  
C 16.6970000   17.4350000   14.7480000  
C 15.9700000   16.3380000   14.1840000  
C 15.2410000   15.4890000   15.0190000  
C 15.1550000   15.8200000   16.3780000  
C 17.5190000   18.8940000   16.2310000  
C 17.9920000   19.3060000   14.9930000  
N 17.4240000   18.4000000   14.1240000  
O 19.0820000   21.3290000   15.4440000  
C 18.7660000   20.4220000   14.4670000  
O 18.9670000   20.6750000   13.2730000  
O 14.5850000   14.4850000   14.4020000  
O 14.2390000   15.1770000   17.1990000  
H 17.6590000   19.4010000   17.1650000  
H 18.8440000   20.9970000   16.3070000  
H 17.4400000   18.5460000   13.0930000  
H 14.0780000   14.0910000   15.1410000  
H 14.4220000   15.5100000   18.0950000  
H 16.1250000   16.1050000   13.1600000  
