76
010 
C  9.0210000   19.8640000   25.0600000  
C  8.3860000   18.6110000   25.5170000  
C  8.9600000   17.3690000   25.2530000  
C 10.1260000   17.3300000   24.5270000  
C 10.8880000   18.4600000   24.1590000  
C 10.2820000   19.6920000   24.3620000  
C  8.6660000   16.0810000   25.6590000  
C  9.6760000   15.2910000   25.1570000  
N 10.5760000   16.0830000   24.4820000  
O  8.7080000   13.1880000   25.7000000  
C  9.8500000   13.8470000   25.3020000  
O 10.8580000   13.2340000   24.9100000  
O 10.9420000   20.7900000   23.9770000  
O  8.4690000   20.9700000   25.2000000  
H  7.4730000   18.7140000   26.0710000  
H  7.8810000   15.7190000   26.2840000  
H  8.1410000   13.8930000   26.2170000  
H 11.8020000   20.4200000   23.6480000  
C 12.2540000   18.3170000   23.5830000  
C 12.4640000   17.9710000   22.2380000  
C 13.6820000   17.7020000   21.7300000  
C 14.8320000   17.8300000   22.4760000  
C 14.6940000   18.1230000   23.8310000  
C 13.4580000   18.5170000   24.3650000  
C 11.5400000   17.6430000   21.1850000  
C 12.2650000   17.1950000   20.1400000  
N 13.6550000   17.3810000   20.4140000  
O 10.3600000   16.8190000   18.6910000  
C 11.7210000   16.7540000   18.8380000  
O 12.3630000   16.3210000   17.9520000  
O 15.7720000   18.4330000   24.5660000  
O 13.3740000   18.7220000   25.6890000  
H 10.5050000   17.7460000   21.1670000  
H 10.1470000   17.3780000   19.4920000  
H 14.4010000   17.1570000   19.8080000  
H 16.5800000   18.3960000   24.0140000  
H 14.1350000   18.3500000   26.1960000  
C 16.1630000   17.7680000   21.7670000  
C 16.5600000   18.7240000   20.8050000  
C 17.7230000   18.5630000   20.2160000  
C 18.8120000   17.6580000   20.5460000  
C 18.4100000   16.7070000   21.5120000  
C 17.1650000   16.7920000   22.1490000  
C 15.9780000   19.9630000   20.3390000  
C 16.8880000   20.4910000   19.4540000  
N 18.0100000   19.6620000   19.4640000  
O 15.6990000   22.3950000   18.8260000  
C 16.8670000   21.7150000   18.6460000  
O 17.8310000   22.0980000   17.9470000  
O 19.3000000   15.7310000   22.0050000  
O 16.7740000   15.8260000   23.0530000  
H 15.0270000   20.3550000   20.7570000  
H 15.2230000   21.9050000   19.4680000  
H 18.9360000   19.9060000   19.1340000  
H 20.2370000   15.9920000   21.8210000  
H 17.5190000   15.2250000   23.2260000  
C 20.2250000   17.6530000   19.8580000  
C 21.2330000   18.6380000   19.9690000  
C 22.3400000   18.6160000   19.1860000  
C 22.6150000   17.5610000   18.2960000  
C 21.7080000   16.5130000   18.1860000  
C 20.5490000   16.5750000   18.9720000  
C 21.3620000   19.8880000   20.7700000  
C 22.5960000   20.3770000   20.4690000  
N 23.1530000   19.6900000   19.4150000  
O 22.5530000   22.2290000   22.0230000  
C 23.2220000   21.5980000   21.0980000  
O 24.3000000   22.0200000   20.8700000  
O 21.9750000   15.4990000   17.2640000  
O 19.6790000   15.5690000   18.8440000  
H 20.6020000   20.3150000   21.3580000  
H 21.7490000   21.6580000   22.1380000  
H 24.0280000   19.8890000   18.9170000  
H 21.4120000   14.6730000   17.3680000  
H 19.0530000   15.8490000   19.5040000  
H 23.5470000   17.5960000   17.6700000  
