76
010 
C 11.2950000   17.3520000   27.4340000  
C  9.9010000   17.7520000   27.3430000  
C  9.4550000   18.3170000   26.1990000  
C 10.2160000   18.4850000   25.0280000  
C 11.5940000   18.0540000   25.0480000  
C 12.0930000   17.5450000   26.2480000  
C  8.1550000   18.8830000   25.8620000  
C  8.2860000   19.3280000   24.5330000  
N  9.6010000   19.1410000   24.0900000  
O  6.0530000   20.1060000   24.3690000  
C  7.2230000   20.0380000   23.7590000  
O  7.4520000   20.4630000   22.6150000  
O 13.3390000   16.9800000   26.2920000  
O 11.8500000   16.9480000   28.4190000  
H  9.2830000   17.5560000   28.2100000  
H  7.2980000   19.1040000   26.4620000  
H  6.2550000   19.6190000   25.1850000  
H 13.7860000   17.1930000   25.4340000  
C 12.4770000   18.1880000   23.9040000  
C 13.4090000   19.2480000   23.8160000  
C 14.3770000   19.1440000   22.8990000  
C 14.5930000   18.1310000   21.9430000  
C 13.5500000   17.1000000   21.8990000  
C 12.5380000   17.1210000   22.9290000  
C 13.6890000   20.3780000   24.6300000  
C 14.8430000   20.9770000   24.0870000  
N 15.2750000   20.1780000   23.0100000  
O 15.0270000   22.7130000   25.7890000  
C 15.5750000   22.1070000   24.6460000  
O 16.5790000   22.5090000   24.0880000  
O 13.7610000   16.0520000   21.0240000  
O 11.7030000   16.0420000   23.0480000  
H 13.2030000   20.6990000   25.5040000  
H 14.2660000   22.2140000   26.1040000  
H 16.1400000   20.3610000   22.4320000  
H 14.6810000   16.1780000   20.8830000  
H 11.7370000   15.6480000   22.2060000  
C 15.7250000   18.1260000   21.0040000  
C 16.8160000   17.2140000   21.0640000  
C 17.9230000   17.4060000   20.3100000  
C 18.1410000   18.4130000   19.3110000  
C 17.0620000   19.2930000   19.2130000  
C 15.8480000   19.0910000   19.9020000  
C 17.1330000   16.0440000   21.8910000  
C 18.5280000   15.7450000   21.6570000  
N 18.9270000   16.4380000   20.5260000  
O 18.7150000   13.8710000   23.2520000  
C 19.3160000   14.6240000   22.3410000  
O 20.4590000   14.3490000   21.9680000  
O 17.1300000   20.3850000   18.3950000  
O 14.7390000   19.9340000   19.8030000  
H 16.5630000   15.4550000   22.6370000  
H 17.8330000   14.3280000   23.4280000  
H 19.8110000   16.3980000   20.1150000  
H 17.8910000   20.2270000   17.8000000  
H 14.8800000   20.4620000   19.0290000  
C 19.4110000   18.6090000   18.6210000  
C 19.8530000   17.6240000   17.6710000  
C 21.0480000   17.6870000   17.0160000  
C 21.9530000   18.6950000   17.2180000  
C 21.6150000   19.6880000   18.2140000  
C 20.3320000   19.7140000   18.7820000  
C 19.3870000   16.2840000   17.3390000  
C 20.1990000   15.7440000   16.3460000  
N 21.1210000   16.7850000   16.0280000  
O 19.1480000   13.6320000   16.1550000  
C 20.0910000   14.5060000   15.6720000  
O 20.7940000   14.2400000   14.6880000  
O 22.4080000   20.8200000   18.2930000  
O 19.9830000   20.7360000   19.5480000  
H 18.4620000   15.8510000   17.7350000  
H 18.6280000   14.1780000   16.7790000  
H 21.7890000   16.7060000   15.2810000  
H 21.8330000   21.6030000   18.4000000  
H 19.1010000   20.5840000   20.0330000  
H 22.9790000   18.5700000   16.7550000  
