76
010 
C  9.4740000   14.4000000   19.4360000  
C  8.7650000   13.9670000   20.7090000  
C  9.2290000   14.3660000   21.9040000  
C 10.3620000   15.1490000   22.0480000  
C 10.9560000   15.7940000   20.8690000  
C 10.6340000   15.2670000   19.6480000  
C  8.8690000   13.9420000   23.2600000  
C  9.7810000   14.5990000   24.0730000  
N 10.6990000   15.3970000   23.3230000  
O  8.8030000   13.7600000   25.9550000  
C  9.7600000   14.5480000   25.5250000  
O 10.4330000   15.2290000   26.3460000  
O 11.3750000   15.4890000   18.5310000  
O  9.0970000   13.9930000   18.3540000  
H  7.9470000   13.2730000   20.6490000  
H  8.0490000   13.2120000   23.4040000  
H  8.4170000   13.3110000   25.2550000  
H 12.2800000   15.7600000   18.8400000  
C 12.1430000   16.6120000   21.0850000  
C 13.3120000   16.0890000   21.6030000  
C 14.3190000   16.9420000   21.8170000  
C 14.3470000   18.2720000   21.4530000  
C 13.1570000   18.7670000   20.8710000  
C 12.0350000   17.9240000   20.6390000  
C 13.7240000   14.7580000   22.0730000  
C 15.0550000   14.8950000   22.5220000  
N 15.3620000   16.2870000   22.3310000  
O 15.4810000   12.6080000   23.1640000  
C 15.9850000   13.8180000   22.9980000  
O 17.1400000   14.0790000   23.2130000  
O 13.0100000   20.0800000   20.5560000  
O 10.8400000   18.4090000   20.2460000  
H 13.1600000   13.8120000   22.2650000  
H 14.5000000   12.7950000   23.1240000  
H 16.2500000   16.7720000   22.6390000  
H 13.8720000   20.4270000   20.6970000  
H 10.8140000   19.3880000   20.2860000  
C 15.5550000   19.0990000   21.7500000  
C 16.7940000   18.8140000   21.1770000  
C 17.9220000   19.4910000   21.4850000  
C 17.9880000   20.5200000   22.4380000  
C 16.6980000   20.9220000   22.8300000  
C 15.4380000   20.2420000   22.5120000  
C 17.1690000   17.9390000   20.0880000  
C 18.5560000   18.0420000   19.8770000  
N 18.9930000   19.0380000   20.8070000  
O 18.5240000   16.2730000   18.4070000  
C 19.2900000   17.0670000   19.1850000  
O 20.5180000   16.9930000   19.1800000  
O 16.6210000   22.0530000   23.6520000  
O 14.2530000   20.6450000   23.1140000  
H 16.5410000   17.1300000   19.6880000  
H 17.5660000   16.4770000   18.5530000  
H 19.9620000   19.2520000   21.1000000  
H 17.4080000   22.6000000   23.5660000  
H 14.2200000   21.5480000   23.3950000  
C 19.2890000   21.1700000   22.7830000  
C 19.9460000   21.9970000   21.8550000  
C 21.1870000   22.5300000   22.1110000  
C 21.9100000   22.3220000   23.2860000  
C 21.1600000   21.5840000   24.2800000  
C 19.8960000   21.0130000   24.0350000  
C 19.5850000   22.3870000   20.5420000  
C 20.7220000   23.0230000   19.9930000  
N 21.6760000   23.1540000   21.0180000  
O 19.8190000   23.3550000   17.8220000  
C 20.8650000   23.6420000   18.6850000  
O 21.8660000   24.2930000   18.3370000  
O 21.8250000   21.4460000   25.4080000  
O 19.3790000   20.2000000   24.9800000  
H 18.7000000   22.1010000   20.0400000  
H 19.3570000   22.6860000   18.2920000  
H 22.5950000   23.5940000   20.9250000  
H 21.5780000   20.6290000   25.7790000  
H 18.7680000   19.5440000   24.5540000  
H 22.9160000   22.7450000   23.4500000  
