76
010 
C 14.9600000   10.5680000   21.8560000  
C 13.6650000   10.1790000   21.3320000  
C 12.7390000   11.1860000   21.0000000  
C 13.0790000   12.5180000   21.1080000  
C 14.4050000   12.9760000   21.4170000  
C 15.3120000   12.0210000   21.8570000  
C 11.4390000   11.1370000   20.5210000  
C 10.9470000   12.4520000   20.4880000  
N 12.0280000   13.3050000   20.7570000  
O  8.7630000   11.9590000   19.8300000  
C  9.6520000   12.9460000   19.9740000  
O  9.3870000   14.1300000   19.7710000  
O 16.5640000   12.3000000   22.1940000  
O 15.7500000    9.7130000   22.2520000  
H 13.3700000    9.0850000   21.3270000  
H 10.9200000   10.2950000   20.2670000  
H  9.1690000   11.0690000   19.9820000  
H 16.6650000   13.2820000   21.9210000  
C 14.8430000   14.3900000   21.3350000  
C 14.2620000   15.3620000   22.2290000  
C 14.6200000   16.6460000   22.1430000  
C 15.5820000   17.1920000   21.2250000  
C 16.2270000   16.2610000   20.4170000  
C 15.8410000   14.8570000   20.3880000  
C 13.3040000   15.3410000   23.3750000  
C 13.2670000   16.6610000   23.8560000  
N 14.0830000   17.4470000   23.0640000  
O 11.3500000   16.4600000   25.3030000  
C 12.3280000   17.2980000   24.8070000  
O 12.4450000   18.5080000   25.1490000  
O 17.2270000   16.5890000   19.5730000  
O 16.4450000   14.0170000   19.5250000  
H 12.6650000   14.5350000   23.6250000  
H 11.5250000   15.5810000   25.1800000  
H 14.2770000   18.4340000   23.2330000  
H 17.4720000   17.5130000   19.6010000  
H 17.2800000   14.5090000   19.2820000  
C 15.9210000   18.6420000   21.1530000  
C 16.5700000   19.3070000   22.2340000  
C 16.6810000   20.6660000   22.2550000  
C 16.2080000   21.4790000   21.2100000  
C 15.5110000   20.8820000   20.1360000  
C 15.2630000   19.4510000   20.1930000  
C 17.3840000   18.8060000   23.2890000  
C 17.8650000   19.9470000   23.9560000  
N 17.4550000   21.0880000   23.2560000  
O 18.8610000   18.8510000   25.8250000  
C 18.7450000   20.0520000   25.1810000  
O 19.2510000   21.0350000   25.6020000  
O 15.1730000   21.6630000   19.1060000  
O 14.7320000   18.9470000   19.0570000  
H 17.7050000   17.7250000   23.3450000  
H 18.3930000   18.2210000   25.2110000  
H 17.8850000   22.0270000   23.2590000  
H 15.3340000   22.5920000   19.3710000  
H 14.0660000   19.5450000   18.7590000  
C 16.4310000   22.9920000   21.2110000  
C 17.7340000   23.5720000   21.1360000  
C 17.9890000   24.8970000   21.2970000  
C 16.9350000   25.8170000   21.4710000  
C 15.5820000   25.3420000   21.4390000  
C 15.3490000   23.9230000   21.4050000  
C 19.0060000   22.9240000   20.9860000  
C 19.9640000   23.8680000   20.9990000  
N 19.3520000   25.0770000   21.2050000  
O 21.7870000   22.2930000   20.6570000  
C 21.4160000   23.5930000   20.8640000  
O 22.2460000   24.4990000   20.9870000  
O 14.6020000   26.1550000   21.7180000  
O 14.0590000   23.3420000   21.5710000  
H 19.1380000   21.8960000   20.7690000  
H 21.0280000   21.6330000   20.4970000  
H 19.8380000   25.9710000   21.1240000  
H 13.8850000   25.6080000   22.1090000  
H 14.1360000   22.3860000   21.5370000  
H 17.2150000   26.8660000   21.5840000  
