76
010 
C 14.9170000   11.5710000   25.4720000  
C 15.7760000   10.6460000   24.6740000  
C 16.4240000   11.0380000   23.5380000  
C 16.3830000   12.3330000   23.0140000  
C 15.5570000   13.2760000   23.7630000  
C 14.8690000   12.9300000   24.9110000  
C 17.2460000   10.3490000   22.6550000  
C 17.5340000   11.3070000   21.6410000  
N 17.0620000   12.5650000   21.9410000  
O 18.8870000    9.8330000   20.2870000  
C 18.4250000   11.0850000   20.5080000  
O 18.5330000   11.8850000   19.5840000  
O 13.8710000   13.7290000   25.4960000  
O 14.3130000   11.2210000   26.4840000  
H 15.8960000    9.6790000   25.0930000  
H 17.5300000    9.2660000   22.7840000  
H 18.6560000    9.3930000   21.0830000  
H 14.3160000   14.5770000   25.4250000  
C 15.4620000   14.6660000   23.3400000  
C 14.7140000   15.0590000   22.2180000  
C 14.8420000   16.3960000   21.8450000  
C 15.5730000   17.4260000   22.4310000  
C 16.2050000   17.0440000   23.6530000  
C 16.1750000   15.6570000   24.0300000  
C 13.9250000   14.3960000   21.2760000  
C 13.6200000   15.3510000   20.3370000  
N 14.2020000   16.5840000   20.6130000  
O 12.5590000   13.7650000   18.9200000  
C 12.8700000   15.0070000   19.0850000  
O 12.6780000   15.9250000   18.3060000  
O 16.8550000   17.9880000   24.4350000  
O 16.9150000   15.2860000   25.1410000  
H 13.3550000   13.4460000   21.3630000  
H 12.9300000   13.2890000   19.6230000  
H 13.9360000   17.4620000   20.1470000  
H 17.0350000   18.7940000   23.9610000  
H 17.3600000   16.1370000   25.4320000  
C 15.6640000   18.7700000   21.6990000  
C 14.5840000   19.6920000   21.6190000  
C 14.8550000   20.8770000   21.0190000  
C 16.0960000   21.2480000   20.4130000  
C 17.1540000   20.3440000   20.5440000  
C 16.9020000   19.0830000   21.1390000  
C 13.1630000   19.6570000   21.9850000  
C 12.6950000   20.9170000   21.7100000  
N 13.7240000   21.6750000   21.0380000  
O 10.4430000   20.7110000   22.6140000  
C 11.4050000   21.5590000   22.1360000  
O 11.1830000   22.7250000   21.9320000  
O 18.3730000   20.6710000   20.0170000  
O 17.9430000   18.1770000   21.1220000  
H 12.7270000   18.9400000   22.6300000  
H 10.7170000   19.7870000   22.3430000  
H 13.6120000   22.5840000   20.6320000  
H 18.3110000   21.6060000   19.7320000  
H 18.7130000   18.5460000   20.5580000  
C 16.2530000   22.6610000   19.8170000  
C 16.2580000   23.8040000   20.6650000  
C 16.3230000   25.0770000   20.1800000  
C 16.6260000   25.3710000   18.8170000  
C 16.7730000   24.2340000   17.9520000  
C 16.4880000   22.9000000   18.4330000  
C 16.1080000   23.9040000   22.0860000  
C 16.1270000   25.2470000   22.4070000  
N 16.3030000   26.0100000   21.2290000  
O 15.6880000   24.8660000   24.7810000  
C 15.8770000   25.7940000   23.8190000  
O 15.8910000   26.9720000   24.0460000  
O 17.2430000   24.4600000   16.7010000  
O 16.5030000   21.9200000   17.5130000  
H 15.9290000   23.0330000   22.6770000  
H 15.4000000   24.2050000   24.2260000  
H 16.2600000   27.0120000   21.1280000  
H 17.0610000   23.6950000   16.1620000  
H 16.2360000   21.0850000   17.8680000  
H 16.8620000   26.3380000   18.4190000  
