76
010 
C 14.3250000   11.2990000   24.8060000  
C 15.7080000   10.6340000   24.9460000  
C 16.8210000   11.4720000   24.6960000  
C 16.8100000   12.8520000   24.4300000  
C 15.4940000   13.3810000   24.1680000  
C 14.3280000   12.7010000   24.4310000  
C 18.2010000   11.1780000   24.6760000  
C 18.8560000   12.3620000   24.2670000  
N 17.9770000   13.4290000   24.1530000  
O 20.9130000   11.2740000   23.9780000  
C 20.2320000   12.4090000   23.7760000  
O 20.8470000   13.3780000   23.3640000  
O 13.1130000   13.2110000   24.0980000  
O 13.3030000   10.6880000   24.9730000  
H 15.8030000    9.5180000   25.1460000  
H 18.5720000   10.1740000   24.7350000  
H 20.1910000   10.7770000   24.2770000  
H 13.2570000   14.1330000   23.7080000  
C 15.3770000   14.7820000   23.6870000  
C 15.7100000   15.0720000   22.3480000  
C 15.6120000   16.3730000   21.8780000  
C 15.3170000   17.4940000   22.6810000  
C 14.9920000   17.1630000   24.0110000  
C 15.0210000   15.8500000   24.5580000  
C 16.2460000   14.2890000   21.2960000  
C 16.5970000   15.2190000   20.3110000  
N 16.0960000   16.5080000   20.6290000  
O 17.8440000   13.6470000   19.0310000  
C 17.4140000   14.9380000   19.0740000  
O 17.5880000   15.7100000   18.1810000  
O 14.5890000   18.1440000   24.8730000  
O 14.6900000   15.5260000   25.9040000  
H 16.2790000   13.2040000   21.2200000  
H 17.4150000   13.1990000   19.7870000  
H 16.1730000   17.2650000   19.9130000  
H 14.2030000   18.8620000   24.3470000  
H 14.4840000   16.3940000   26.2770000  
C 15.4290000   18.8930000   22.1530000  
C 14.5790000   19.2880000   21.0750000  
C 14.6260000   20.5070000   20.4850000  
C 15.6690000   21.4360000   20.7100000  
C 16.5890000   20.9920000   21.7030000  
C 16.4970000   19.7980000   22.4370000  
C 13.4510000   18.6070000   20.4600000  
C 12.9330000   19.4950000   19.4900000  
N 13.7540000   20.7010000   19.4760000  
O 11.0350000   18.2140000   18.8010000  
C 11.6630000   19.4140000   18.7380000  
O 11.1580000   20.3420000   18.0850000  
O 17.5400000   21.9060000   22.1500000  
O 17.4710000   19.5180000   23.3280000  
H 12.8850000   17.7140000   20.7980000  
H 11.5900000   17.6350000   19.3150000  
H 13.4480000   21.5970000   19.0480000  
H 17.4800000   22.7590000   21.7030000  
H 18.1460000   20.1840000   23.3180000  
C 15.7700000   22.8330000   20.0210000  
C 14.7880000   23.8260000   20.1590000  
C 14.9660000   25.0810000   19.4580000  
C 16.0680000   25.4820000   18.6910000  
C 17.0790000   24.5070000   18.5750000  
C 16.8780000   23.1810000   19.1820000  
C 13.5140000   23.8140000   20.7660000  
C 13.0480000   25.1170000   20.6310000  
N 13.8360000   25.8770000   19.7670000  
O 11.2330000   24.6200000   22.1300000  
C 11.8500000   25.5780000   21.3600000  
O 11.3680000   26.6960000   21.3000000  
O 18.1570000   24.7920000   17.8730000  
O 17.8880000   22.2450000   18.9490000  
H 13.1490000   23.0270000   21.3610000  
H 11.7970000   23.8400000   22.2070000  
H 13.5360000   26.8250000   19.5450000  
H 18.8190000   24.1420000   18.1470000  
H 17.5170000   21.4710000   19.4050000  
H 16.1140000   26.4450000   18.2730000  
