76
010 
C 18.7190000   12.8360000   26.1820000  
C 19.3690000   11.9840000   25.1800000  
C 19.4150000   12.3060000   23.8420000  
C 18.7260000   13.4400000   23.3150000  
C 18.0370000   14.3140000   24.2470000  
C 18.0410000   14.0450000   25.5990000  
C 20.0080000   11.6570000   22.7810000  
C 19.6110000   12.3840000   21.6430000  
N 18.7900000   13.4910000   21.9570000  
O 20.6820000   10.9440000   20.0220000  
C 19.8990000   12.0010000   20.2470000  
O 19.4640000   12.6400000   19.3030000  
O 17.2690000   14.8510000   26.3680000  
O 18.7190000   12.6070000   27.3780000  
H 20.0400000   11.1860000   25.5230000  
H 20.7460000   10.8580000   22.8290000  
H 21.1640000   10.8750000   20.8440000  
H 16.6590000   15.3450000   25.7880000  
C 17.2750000   15.4830000   23.7110000  
C 16.2390000   15.2280000   22.7850000  
C 15.6330000   16.2810000   22.2480000  
C 15.8730000   17.6860000   22.5020000  
C 16.9740000   17.9270000   23.3520000  
C 17.6240000   16.8070000   23.9650000  
C 15.6630000   14.0000000   22.3410000  
C 14.5140000   14.3960000   21.6310000  
N 14.5700000   15.7790000   21.5140000  
O 13.8700000   12.2270000   20.9680000  
C 13.5610000   13.5500000   20.8710000  
O 12.6320000   14.0040000   20.2150000  
O 17.3310000   19.2290000   23.7150000  
O 18.6940000   17.0630000   24.7630000  
H 16.0870000   12.9980000   22.5720000  
H 14.7190000   12.1710000   21.4020000  
H 14.1200000   16.2550000   20.7530000  
H 16.7580000   19.7520000   23.0900000  
H 18.7020000   18.0160000   24.9000000  
C 15.0640000   18.7470000   21.7970000  
C 14.2860000   19.7280000   22.4280000  
C 13.6620000   20.7210000   21.7440000  
C 13.5670000   20.7110000   20.3880000  
C 14.2710000   19.6880000   19.6790000  
C 15.1300000   18.7980000   20.3860000  
C 14.1290000   20.1250000   23.8030000  
C 13.2820000   21.3030000   23.8360000  
N 13.0260000   21.6750000   22.5290000  
O 12.7660000   21.4300000   26.2510000  
C 12.6310000   21.9930000   25.0360000  
O 11.8300000   22.8360000   24.8820000  
O 14.2530000   19.6400000   18.3280000  
O 15.8960000   17.8170000   19.7100000  
H 14.5330000   19.6290000   24.7460000  
H 13.5390000   20.7710000   26.1950000  
H 12.4540000   22.4210000   22.2160000  
H 13.6600000   20.2990000   18.1090000  
H 15.7260000   18.0450000   18.7240000  
C 12.8850000   21.8250000   19.7130000  
C 13.5990000   22.9490000   19.2710000  
C 13.0370000   23.9570000   18.5320000  
C 11.6410000   23.9130000   18.2950000  
C 10.8820000   22.8800000   18.7560000  
C 11.5000000   21.7700000   19.3830000  
C 15.0510000   23.2070000   19.3420000  
C 15.2010000   24.4310000   18.7010000  
N 13.9830000   24.9050000   18.2340000  
O 17.5490000   24.7740000   19.1580000  
C 16.4710000   25.3140000   18.5370000  
O 16.4690000   26.3350000   17.8630000  
O  9.5730000   22.7330000   18.4210000  
O 10.8170000   20.6370000   19.5690000  
H 15.8540000   22.6290000   19.8070000  
H 17.2730000   24.1500000   19.8190000  
H 13.6740000   25.8270000   17.7850000  
H  9.3520000   21.9170000   18.9170000  
H 11.3480000   20.0650000   20.2320000  
H 11.2080000   24.7860000   17.7840000  
