76
010 
C 18.0580000   16.6340000   28.5530000  
C 19.4860000   16.7860000   28.6170000  
C 20.1880000   17.2680000   27.4960000  
C 19.5290000   17.6350000   26.3220000  
C 18.1370000   17.5290000   26.1820000  
C 17.4550000   17.0650000   27.2700000  
C 21.5500000   17.5030000   27.2890000  
C 21.6510000   18.0590000   26.0120000  
N 20.3830000   18.1270000   25.4360000  
O 23.8410000   18.9000000   26.4990000  
C 22.8980000   18.7010000   25.5760000  
O 23.0440000   19.1770000   24.4960000  
O 16.0790000   16.8830000   27.1340000  
O 17.3880000   16.2820000   29.5140000  
H 20.0020000   16.6350000   29.5820000  
H 22.4190000   17.4130000   28.0000000  
H 23.7210000   18.1610000   27.1240000  
H 15.9200000   17.2940000   26.2280000  
C 17.4570000   17.8310000   24.9370000  
C 17.0510000   16.7630000   24.0630000  
C 16.4370000   16.9900000   22.8760000  
C 16.0920000   18.2930000   22.4410000  
C 16.4770000   19.3500000   23.2750000  
C 17.1930000   19.1550000   24.4330000  
C 17.1550000   15.3350000   24.2710000  
C 16.5200000   14.7820000   23.1810000  
N 16.1060000   15.7900000   22.2780000  
O 16.7350000   12.4560000   23.9130000  
C 16.2190000   13.2900000   23.0360000  
O 15.4620000   12.8770000   22.2040000  
O 16.0810000   20.6180000   22.8870000  
O 17.7210000   20.2320000   25.1360000  
H 17.5010000   14.8060000   25.1730000  
H 17.2500000   13.0040000   24.4190000  
H 15.6570000   15.6640000   21.4040000  
H 15.7610000   20.4480000   21.9580000  
H 17.2480000   21.0370000   24.7630000  
C 15.3210000   18.4440000   21.1630000  
C 13.8830000   18.6530000   21.0920000  
C 13.1950000   18.7270000   19.8830000  
C 13.8670000   18.4680000   18.6490000  
C 15.2600000   18.2990000   18.6920000  
C 16.0310000   18.3190000   19.8900000  
C 12.7860000   18.7850000   22.0080000  
C 11.5930000   18.9150000   21.3010000  
N 11.8390000   18.7770000   19.9480000  
O 10.3110000   19.4660000   23.2690000  
C 10.2660000   19.3130000   21.9540000  
O  9.2430000   19.4440000   21.2700000  
O 15.8410000   18.0830000   17.5000000  
O 17.3990000   18.1120000   19.8840000  
H 12.9530000   18.8560000   23.1070000  
H 11.2190000   19.1270000   23.4460000  
H 11.2370000   18.9440000   19.1920000  
H 15.1950000   18.0280000   16.8040000  
H 17.7140000   17.9030000   18.9690000  
C 13.1170000   18.2490000   17.4200000  
C 12.6130000   19.3530000   16.7780000  
C 11.7140000   19.2540000   15.7020000  
C 11.4340000   17.9980000   15.1540000  
C 11.9000000   16.8340000   15.7770000  
C 12.7550000   16.9590000   16.9240000  
C 12.8790000   20.7610000   16.9140000  
C 12.0740000   21.4190000   15.9470000  
N 11.3800000   20.4540000   15.2090000  
O 12.8300000   23.6170000   16.5550000  
C 12.0590000   22.8710000   15.7590000  
O 11.3790000   23.3770000   14.8640000  
O 11.4610000   15.6320000   15.2840000  
O 13.1020000   15.7520000   17.5300000  
H 13.4780000   21.2800000   17.6440000  
H 12.9260000   22.9460000   17.2640000  
H 10.5930000   20.7670000   14.6910000  
H 10.7220000   15.8490000   14.6280000  
H 12.9970000   15.0500000   16.8940000  
H 10.7280000   17.9600000   14.3220000  
