76
010 
C 10.7170000   21.4850000   26.0570000  
C 10.5400000   20.6530000   27.2700000  
C 11.2100000   19.4590000   27.3920000  
C 11.9600000   18.9340000   26.3360000  
C 12.2960000   19.6960000   25.2220000  
C 11.6840000   20.9190000   25.0560000  
C 11.3370000   18.5840000   28.4640000  
C 12.0700000   17.5280000   27.9440000  
N 12.5460000   17.8330000   26.6640000  
O 12.2280000   16.3660000   29.9820000  
C 12.5130000   16.3360000   28.6630000  
O 13.1590000   15.4210000   28.1540000  
O 11.9620000   21.6500000   23.8990000  
O 10.1760000   22.5920000   25.9200000  
H  9.9630000   21.0750000   28.0930000  
H 11.0430000   18.7180000   29.5160000  
H 11.8820000   17.3290000   30.1290000  
H 12.7130000   21.2140000   23.4390000  
C 13.1810000   19.2350000   24.0890000  
C 12.7070000   18.2820000   23.2250000  
C 13.4230000   17.8370000   22.1520000  
C 14.7230000   18.2800000   21.8320000  
C 15.2460000   19.2470000   22.7630000  
C 14.4750000   19.7490000   23.7830000  
C 11.4480000   17.5270000   23.2830000  
C 11.5210000   16.6660000   22.1660000  
N 12.7830000   16.8080000   21.4890000  
O  9.5650000   15.3600000   22.7260000  
C 10.6390000   15.4920000   21.8190000  
O 10.8580000   14.6640000   20.9660000  
O 16.4190000   19.7590000   22.4990000  
O 14.9630000   20.6770000   24.6870000  
H 10.7280000   17.5400000   24.0800000  
H  9.6110000   16.1960000   23.2730000  
H 13.1690000   16.1450000   20.7460000  
H 16.7090000   19.2180000   21.7450000  
H 15.8490000   20.9330000   24.4210000  
C 15.6150000   17.6910000   20.8090000  
C 15.8710000   18.3780000   19.6170000  
C 16.8730000   17.9420000   18.7840000  
C 17.6880000   16.8300000   19.0500000  
C 17.3660000   16.1100000   20.2390000  
C 16.3320000   16.5070000   21.0700000  
C 15.5190000   19.6830000   19.2240000  
C 16.3270000   19.9700000   18.1120000  
N 17.1670000   18.8830000   17.8070000  
O 15.5190000   22.1590000   17.6290000  
C 16.3930000   21.2010000   17.3250000  
O 17.1920000   21.3340000   16.4070000  
O 18.1150000   15.0600000   20.4970000  
O 16.0920000   15.7590000   22.2070000  
H 14.8480000   20.3570000   19.7600000  
H 14.8780000   21.8710000   18.3090000  
H 17.9300000   18.7830000   17.2130000  
H 18.8200000   14.9470000   19.7610000  
H 16.6440000   15.0360000   22.4700000  
C 18.7770000   16.5170000   18.1340000  
C 20.0550000   17.0980000   18.4160000  
C 21.1770000   16.9670000   17.6610000  
C 21.0580000   16.2530000   16.4380000  
C 19.8780000   15.4650000   16.1400000  
C 18.7580000   15.5400000   17.0300000  
C 20.3400000   18.0830000   19.4110000  
C 21.6350000   18.5080000   19.2340000  
N 22.2050000   17.6570000   18.2260000  
O 21.7140000   20.3130000   21.0050000  
C 22.4170000   19.4860000   20.1160000  
O 23.6310000   19.6070000   20.0210000  
O 19.7650000   14.5950000   15.0890000  
O 17.7250000   14.7000000   16.8260000  
H 19.6460000   18.4130000   20.0780000  
H 20.8280000   20.0250000   20.7510000  
H 23.1770000   17.5340000   18.0490000  
H 20.5880000   14.6470000   14.5090000  
H 17.9900000   14.2090000   15.9900000  
H 21.9430000   16.1770000   15.7850000  
