76
010 
C 13.7440000   11.9000000   25.7670000  
C 12.8850000   11.1560000   24.8450000  
C 12.9110000   11.3990000   23.5220000  
C 13.4620000   12.5180000   22.9620000  
C 14.1500000   13.4320000   23.8350000  
C 14.2980000   13.1480000   25.2020000  
C 12.3970000   10.6830000   22.4610000  
C 12.5900000   11.4510000   21.2740000  
N 13.2660000   12.5610000   21.6310000  
O 11.3100000   10.0050000   19.9120000  
C 12.0930000   11.1150000   19.9720000  
O 12.3140000   11.7450000   18.9540000  
O 14.8410000   14.0020000   26.0820000  
O 13.8860000   11.4670000   26.8940000  
H 12.4500000   10.2540000   25.1940000  
H 11.8980000    9.7260000   22.6340000  
H 11.1420000    9.6420000   20.8500000  
H 14.9180000   14.8870000   25.6780000  
C 14.5990000   14.7240000   23.2090000  
C 13.6850000   15.6660000   22.7710000  
C 14.0760000   16.9270000   22.3700000  
C 15.4080000   17.3300000   22.1040000  
C 16.3820000   16.3140000   22.4970000  
C 15.9820000   15.0500000   22.9990000  
C 12.2220000   15.8080000   23.0040000  
C 11.9080000   17.1360000   22.6990000  
N 13.0150000   17.7770000   22.1830000  
O  9.5860000   16.9630000   23.1640000  
C 10.5820000   17.8040000   22.8810000  
O 10.3880000   18.9920000   22.6000000  
O 17.7190000   16.5930000   22.5160000  
O 16.8800000   14.0880000   23.3300000  
H 11.5660000   15.1440000   23.5420000  
H 10.0310000   16.1610000   23.0620000  
H 13.0460000   18.6500000   21.7220000  
H 17.9240000   17.5550000   22.4380000  
H 17.7490000   14.3910000   22.9530000  
C 15.8590000   18.6350000   21.5000000  
C 16.2500000   19.7390000   22.2920000  
C 16.7120000   20.8810000   21.7190000  
C 16.9040000   21.0420000   20.2890000  
C 16.4900000   19.9840000   19.5470000  
C 16.0360000   18.7430000   20.0950000  
C 16.0760000   20.1100000   23.6710000  
C 16.4040000   21.4750000   23.7860000  
N 16.8170000   21.9470000   22.5700000  
O 15.6750000   21.6870000   26.0330000  
C 16.3690000   22.2530000   25.0070000  
O 16.8940000   23.3670000   25.1450000  
O 16.4780000   20.1590000   18.1730000  
O 15.7250000   17.7160000   19.2910000  
H 15.8630000   19.4560000   24.4920000  
H 15.3210000   20.8670000   25.7240000  
H 17.1020000   22.9220000   22.3340000  
H 16.6420000   21.0580000   17.9470000  
H 15.5100000   18.1550000   18.3940000  
C 17.1890000   22.3550000   19.6860000  
C 18.5280000   22.7820000   19.3460000  
C 18.7530000   23.9210000   18.6510000  
C 17.7420000   24.8330000   18.4850000  
C 16.4170000   24.5430000   18.8660000  
C 16.1450000   23.3720000   19.5110000  
C 19.8520000   22.1920000   19.6030000  
C 20.7450000   22.9730000   18.8560000  
N 20.0950000   24.0920000   18.3630000  
O 22.6230000   21.7840000   19.4930000  
C 22.1910000   22.8330000   18.7880000  
O 22.9200000   23.5720000   18.1330000  
O 15.5150000   25.4770000   18.6550000  
O 14.8870000   23.0570000   19.6880000  
H 20.1360000   21.3170000   20.2200000  
H 21.9020000   21.4080000   20.0680000  
H 20.5360000   24.8510000   17.8760000  
H 15.9320000   26.1420000   18.1450000  
H 14.3020000   23.7140000   19.2270000  
H 17.9960000   25.7230000   17.9950000  
