76
010 
C 17.0920000   19.8200000   28.9070000  
C 15.7820000   19.9130000   29.6630000  
C 14.6060000   19.7540000   28.9940000  
C 14.4960000   19.4400000   27.5950000  
C 15.7220000   19.3400000   26.8470000  
C 16.9460000   19.5130000   27.4560000  
C 13.2390000   19.7930000   29.4330000  
C 12.4740000   19.4890000   28.3060000  
N 13.2520000   19.3280000   27.1320000  
O 10.3860000   19.6180000   29.4200000  
C 11.0030000   19.4790000   28.2240000  
O 10.3320000   19.2030000   27.2630000  
O 18.1550000   19.3450000   26.8710000  
O 18.1340000   19.9260000   29.5180000  
H 15.8430000   20.1560000   30.6980000  
H 12.9050000   20.0630000   30.4440000  
H 11.0400000   19.7290000   30.0430000  
H 17.9600000   19.4570000   25.9320000  
C 15.7130000   18.8970000   25.4370000  
C 15.6710000   19.8590000   24.4430000  
C 15.6480000   19.4480000   23.1470000  
C 15.6140000   18.0760000   22.6900000  
C 15.5420000   17.1460000   23.8070000  
C 15.6790000   17.5300000   25.1550000  
C 15.5390000   21.3110000   24.4460000  
C 15.3670000   21.6090000   23.0500000  
N 15.5600000   20.4800000   22.2620000  
O 14.7880000   23.9510000   23.4130000  
C 14.9640000   22.9350000   22.4830000  
O 14.8190000   23.1550000   21.2590000  
O 15.4280000   15.7790000   23.5450000  
O 15.6770000   16.6610000   26.1220000  
H 15.2210000   21.9460000   25.2440000  
H 14.9120000   23.5640000   24.2740000  
H 15.6860000   20.4410000   21.2690000  
H 15.7070000   15.6010000   22.6530000  
H 15.1460000   15.9410000   25.7360000  
C 15.5620000   17.7490000   21.2480000  
C 16.5810000   17.0830000   20.5780000  
C 16.5980000   16.9550000   19.1980000  
C 15.6360000   17.4840000   18.2950000  
C 14.4950000   18.0070000   19.0240000  
C 14.4670000   18.1830000   20.3950000  
C 17.7440000   16.2860000   21.0760000  
C 18.4430000   15.7610000   20.0160000  
N 17.7850000   16.2640000   18.8420000  
O 19.8670000   14.5700000   21.4690000  
C 19.6480000   14.9280000   20.1720000  
O 20.3110000   14.3950000   19.2770000  
O 13.4700000   18.4810000   18.3250000  
O 13.4580000   18.9190000   20.9500000  
H 18.1520000   16.2780000   22.0910000  
H 19.1780000   15.0810000   21.9450000  
H 18.0600000   16.0110000   17.8550000  
H 13.4940000   18.3760000   17.3910000  
H 12.8710000   19.0360000   20.2250000  
C 15.7120000   17.6070000   16.7960000  
C 15.6390000   16.4670000   15.9010000  
C 15.6790000   16.6200000   14.5140000  
C 15.7460000   17.8690000   13.8380000  
C 15.7250000   19.0210000   14.6990000  
C 15.6680000   18.9170000   16.0990000  
C 15.5880000   15.0870000   16.1890000  
C 15.4380000   14.4600000   14.9710000  
N 15.5280000   15.3930000   13.9450000  
O 15.3730000   12.3330000   15.9090000  
C 15.3840000   12.9940000   14.7410000  
O 15.1830000   12.4480000   13.6620000  
O 15.8140000   20.1750000   14.0520000  
O 15.4390000   20.0950000   16.7950000  
H 15.5710000   14.6040000   17.1730000  
H 15.6060000   13.0500000   16.5610000  
H 15.1520000   15.2110000   13.0560000  
H 15.6370000   20.0950000   13.0990000  
H 15.5020000   20.9010000   16.2480000  
H 15.6920000   17.9970000   12.7810000  
