76
010 
C 20.4590000   17.5460000   27.5560000  
C 19.5850000   17.3860000   28.7330000  
C 18.2060000   17.6180000   28.5760000  
C 17.5970000   17.8030000   27.3300000  
C 18.3870000   17.8950000   26.1200000  
C 19.7540000   17.8640000   26.2690000  
C 17.2300000   17.5680000   29.4860000  
C 16.0280000   17.6310000   28.7930000  
N 16.2660000   17.7230000   27.4300000  
O 14.7430000   17.3880000   30.8310000  
C 14.6950000   17.6570000   29.4460000  
O 13.6850000   17.8320000   28.8130000  
O 20.6100000   17.8390000   25.2600000  
O 21.6610000   17.4160000   27.6850000  
H 20.0270000   17.1990000   29.7010000  
H 17.4080000   17.3650000   30.5430000  
H 15.6590000   17.2010000   31.1020000  
H 20.0110000   17.7680000   24.4630000  
C 17.7530000   17.9170000   24.8010000  
C 17.0980000   19.0610000   24.4240000  
C 16.3060000   19.0330000   23.3090000  
C 16.1430000   17.9830000   22.3940000  
C 16.8710000   16.8750000   22.7670000  
C 17.6650000   16.7690000   23.9420000  
C 16.9420000   20.3430000   24.9850000  
C 16.0920000   21.0630000   24.0950000  
N 15.6530000   20.1960000   23.0710000  
O 16.1580000   23.0770000   25.4080000  
C 15.7370000   22.4780000   24.2590000  
O 15.0340000   23.0440000   23.4370000  
O 16.8560000   15.7780000   21.9370000  
O 18.3820000   15.6100000   24.2280000  
H 17.3840000   20.7650000   25.9280000  
H 16.5120000   22.3280000   25.9360000  
H 14.8940000   20.5210000   22.4180000  
H 16.2180000   15.8890000   21.1980000  
H 18.2760000   15.0800000   23.3710000  
C 15.2340000   18.1120000   21.2430000  
C 15.6740000   17.9910000   19.8880000  
C 14.8710000   18.1850000   18.8250000  
C 13.5110000   18.4230000   18.8920000  
C 12.9370000   18.3240000   20.2140000  
C 13.8330000   18.3180000   21.3860000  
C 16.9960000   17.7600000   19.3070000  
C 16.8380000   17.8120000   17.9600000  
N 15.5200000   18.0190000   17.6680000  
O 19.1780000   18.2250000   17.6260000  
C 17.9580000   17.9510000   17.0160000  
O 17.7980000   17.8720000   15.8410000  
O 11.5680000   18.4250000   20.4200000  
O 13.3400000   18.2820000   22.6060000  
H 17.8990000   17.7130000   19.8920000  
H 19.0820000   18.4780000   18.5570000  
H 15.0270000   18.2800000   16.8120000  
H 11.0470000   18.1600000   19.6390000  
H 12.3890000   18.1720000   22.6240000  
C 12.7870000   18.5180000   17.6110000  
C 12.6870000   17.5190000   16.6050000  
C 12.0010000   17.7810000   15.4210000  
C 11.4900000   19.0350000   15.1610000  
C 11.5570000   20.0470000   16.1200000  
C 12.1560000   19.7180000   17.3710000  
C 13.0630000   16.1690000   16.5570000  
C 12.7730000   15.6320000   15.2830000  
N 12.1470000   16.6660000   14.6170000  
O 13.4870000   13.4800000   15.6350000  
C 12.9190000   14.2750000   14.8090000  
O 12.5650000   13.9200000   13.6800000  
O 11.0380000   21.2950000   15.9270000  
O 12.2270000   20.7110000   18.3450000  
H 13.5430000   15.6710000   17.3360000  
H 13.8360000   13.9270000   16.4040000  
H 11.8910000   16.5800000   13.6230000  
H 11.1690000   21.9510000   16.6280000  
H 12.6800000   20.2490000   19.0820000  
H 11.0670000   19.2360000   14.2300000  
