76
010 
C  9.9600000   18.2840000   26.5800000  
C  9.2770000   16.9210000   26.5610000  
C  9.8180000   15.9210000   25.8450000  
C 10.8720000   16.0960000   24.9260000  
C 11.4710000   17.4220000   24.7530000  
C 11.0770000   18.4430000   25.6220000  
C  9.4090000   14.6050000   25.7950000  
C 10.1740000   14.0230000   24.7740000  
N 11.1030000   14.9390000   24.3210000  
O  9.1620000   11.8120000   24.9650000  
C 10.1790000   12.5510000   24.3770000  
O 11.0130000   12.0410000   23.6580000  
O 11.6120000   19.6590000   25.6140000  
O  9.6480000   19.1150000   27.3970000  
H  8.6390000   16.7680000   27.3810000  
H  8.6840000   14.1280000   26.5190000  
H  8.6830000   12.3730000   25.5890000  
H 12.2960000   19.7010000   24.9180000  
C 12.5310000   17.6330000   23.8330000  
C 12.3300000   18.2470000   22.5640000  
C 13.4080000   18.5580000   21.7890000  
C 14.7150000   18.1250000   21.9960000  
C 14.8950000   17.4200000   23.2100000  
C 13.8500000   17.2610000   24.1250000  
C 11.1860000   18.8880000   22.0050000  
C 11.6440000   19.6310000   20.9250000  
N 12.9990000   19.3690000   20.7250000  
O  9.7490000   20.9310000   20.7720000  
C 10.9340000   20.6390000   20.1660000  
O 11.3950000   21.2550000   19.1930000  
O 16.1450000   16.8580000   23.5710000  
O 14.1370000   16.6010000   25.3130000  
H 10.2760000   19.0420000   22.4750000  
H  9.5300000   20.3960000   21.5250000  
H 13.5600000   19.7750000   19.9600000  
H 16.6480000   16.8550000   22.6970000  
H 15.0530000   16.4260000   25.3410000  
C 15.9140000   18.4250000   21.1000000  
C 17.1370000   18.9830000   21.6180000  
C 18.1530000   19.2060000   20.7450000  
C 18.0330000   19.0420000   19.3280000  
C 16.8750000   18.3770000   18.7900000  
C 15.8440000   18.0740000   19.6910000  
C 17.4500000   19.6770000   22.7960000  
C 18.6370000   20.3400000   22.5680000  
N 19.0490000   20.1350000   21.2500000  
O 18.7660000   20.9640000   24.8330000  
C 19.3580000   21.1040000   23.6510000  
O 20.2770000   21.8640000   23.4140000  
O 16.8370000   18.1100000   17.4210000  
O 14.6750000   17.5010000   19.1790000  
H 16.8400000   19.5640000   23.7200000  
H 18.3570000   20.0400000   24.8080000  
H 19.9340000   20.4820000   20.8050000  
H 17.6910000   18.4920000   16.9840000  
H 14.4900000   17.7750000   18.2400000  
C 19.3050000   19.2950000   18.4740000  
C 20.5080000   18.5540000   18.6230000  
C 21.5780000   18.8680000   17.8910000  
C 21.5700000   19.8840000   16.9010000  
C 20.3090000   20.5190000   16.6180000  
C 19.2600000   20.2620000   17.4150000  
C 20.8970000   17.5110000   19.5480000  
C 22.1700000   17.1190000   19.1650000  
N 22.5960000   18.0300000   18.1570000  
O 22.4700000   15.1430000   20.4060000  
C 23.0520000   16.1040000   19.7140000  
O 24.2010000   16.0280000   19.4610000  
O 20.2760000   21.4480000   15.6810000  
O 18.0290000   20.8620000   17.2070000  
H 20.3780000   17.0830000   20.3200000  
H 21.5840000   15.5020000   20.5360000  
H 23.5750000   18.2420000   17.9270000  
H 19.2990000   21.6650000   15.4580000  
H 17.4660000   20.7130000   18.0310000  
H 22.3200000   19.9930000   16.1450000  
