76
010 
C  8.4990000   16.8220000   24.3280000  
C  8.4130000   15.3470000   24.2810000  
C  9.5090000   14.5230000   24.0190000  
C 10.7650000   15.0380000   23.8850000  
C 10.9860000   16.4460000   23.8430000  
C  9.8880000   17.3200000   24.0160000  
C  9.7000000   13.1250000   23.9580000  
C 11.0550000   12.9690000   23.8280000  
N 11.7530000   14.1580000   23.6420000  
O 10.7970000   10.6520000   24.2420000  
C 11.6840000   11.6420000   23.9520000  
O 12.8900000   11.3850000   23.8930000  
O  9.9330000   18.6750000   24.0170000  
O  7.5250000   17.5420000   24.4530000  
H  7.3770000   14.8980000   24.4270000  
H  9.0170000   12.3300000   24.2280000  
H  9.9210000   11.0580000   24.3070000  
H 10.8320000   18.8610000   24.1700000  
C 12.2880000   16.9100000   23.4440000  
C 12.5690000   16.9270000   22.1100000  
C 13.8080000   17.3300000   21.7000000  
C 14.8110000   17.8740000   22.5260000  
C 14.4320000   18.0080000   23.8550000  
C 13.1500000   17.5920000   24.3260000  
C 11.9430000   16.2720000   20.9710000  
C 12.7570000   16.4730000   19.8980000  
N 13.8830000   17.2090000   20.3100000  
O 11.7210000   15.0450000   18.3220000  
C 12.6890000   15.9320000   18.5320000  
O 13.4730000   16.2820000   17.6880000  
O 15.2310000   18.6820000   24.6670000  
O 12.8600000   17.7250000   25.6690000  
H 10.9880000   15.8330000   20.9510000  
H 11.3360000   15.0520000   19.1890000  
H 14.7240000   17.2620000   19.7190000  
H 16.1040000   18.7330000   24.1910000  
H 13.7050000   17.9400000   26.1470000  
C 16.1400000   18.3100000   22.0020000  
C 16.4300000   19.6200000   21.4620000  
C 17.6370000   20.0320000   20.9320000  
C 18.7540000   19.2080000   20.8790000  
C 18.5420000   17.9520000   21.4860000  
C 17.3280000   17.4780000   21.9990000  
C 15.5470000   20.7320000   21.1390000  
C 16.2830000   21.6760000   20.3850000  
N 17.5570000   21.1680000   20.1830000  
O 14.4600000   23.0920000   19.8800000  
C 15.7190000   22.8160000   19.6070000  
O 16.2570000   23.4490000   18.7460000  
O 19.6310000   17.1230000   21.6900000  
O 17.2160000   16.1810000   22.4340000  
H 14.4810000   20.8180000   21.4420000  
H 14.2390000   22.3360000   20.5340000  
H 18.3250000   21.6810000   19.8300000  
H 20.4160000   17.5930000   21.2850000  
H 18.1820000   15.8930000   22.4990000  
C 19.9790000   19.5350000   20.0760000  
C 20.7840000   20.6720000   20.3550000  
C 22.0600000   20.8570000   19.7750000  
C 22.6330000   19.8640000   18.8910000  
C 21.8700000   18.7860000   18.6140000  
C 20.5500000   18.5900000   19.1890000  
C 20.5490000   21.8020000   21.2470000  
C 21.7390000   22.5540000   21.2340000  
N 22.5290000   22.0330000   20.2400000  
O 21.0450000   24.0960000   23.0820000  
C 22.0290000   23.6900000   22.1770000  
O 23.1510000   24.2680000   22.1350000  
O 22.4590000   17.8220000   17.8380000  
O 19.8340000   17.4500000   18.8220000  
H 19.5810000   21.9480000   21.7330000  
H 20.3020000   23.4300000   23.0190000  
H 23.4300000   22.3480000   20.0470000  
H 21.7460000   17.1320000   17.7770000  
H 18.9650000   17.5260000   19.2210000  
H 23.6390000   20.0650000   18.5230000  
