76
010 
C  9.5310000   14.2420000   23.9310000  
C  9.8310000   12.8250000   23.7560000  
C 11.0340000   12.3900000   23.1860000  
C 11.9650000   13.2240000   22.6850000  
C 11.8080000   14.6950000   22.8540000  
C 10.6540000   15.1200000   23.4630000  
C 11.4730000   11.0570000   22.9030000  
C 12.6930000   11.2490000   22.2350000  
N 12.9950000   12.6040000   22.1080000  
O 12.9430000    8.9300000   22.0550000  
C 13.4970000   10.0970000   21.7830000  
O 14.5740000   10.1540000   21.1530000  
O 10.3990000   16.4110000   23.6630000  
O  8.4840000   14.6140000   24.4800000  
H  9.1480000   12.0530000   24.0880000  
H 11.1890000   10.0930000   23.2270000  
H 12.0240000    9.1010000   21.9160000  
H  9.6950000   16.3090000   24.3970000  
C 12.9490000   15.6130000   22.6280000  
C 13.2020000   16.1530000   21.3800000  
C 14.0370000   17.1160000   21.1310000  
C 14.9510000   17.6880000   22.1000000  
C 14.8800000   17.0330000   23.3650000  
C 13.8470000   16.0770000   23.6640000  
C 12.3550000   15.9830000   20.2420000  
C 12.9200000   16.7630000   19.2240000  
N 13.9330000   17.5640000   19.7890000  
O 11.4290000   15.9270000   17.4740000  
C 12.4510000   16.7840000   17.7930000  
O 12.9630000   17.4110000   16.8890000  
O 15.9680000   17.1560000   24.2300000  
O 13.8230000   15.4170000   24.8450000  
H 11.4590000   15.3460000   20.1850000  
H 11.1240000   15.3380000   18.1780000  
H 14.4820000   18.3210000   19.3220000  
H 16.6200000   17.8000000   23.7990000  
H 14.7660000   15.4560000   25.1600000  
C 15.9650000   18.7780000   21.8510000  
C 15.8060000   20.0520000   22.4010000  
C 16.6960000   21.0810000   22.1390000  
C 17.7800000   20.9910000   21.2350000  
C 17.9900000   19.6730000   20.6900000  
C 17.1260000   18.5760000   20.9750000  
C 14.7150000   20.6640000   23.1150000  
C 15.0230000   22.0220000   23.2360000  
N 16.3050000   22.2480000   22.7010000  
O 12.9370000   22.7820000   24.1250000  
C 14.2120000   23.1390000   23.7270000  
O 14.5440000   24.3460000   23.7320000  
O 19.0080000   19.4110000   19.8300000  
O 17.2640000   17.3210000   20.3820000  
H 13.7050000   20.3040000   23.4460000  
H 12.9260000   21.8460000   23.8730000  
H 16.7160000   23.2000000   22.6250000  
H 19.5010000   20.2100000   19.7090000  
H 18.1490000   17.3080000   19.9550000  
C 18.7830000   22.1380000   20.9500000  
C 20.1620000   21.9190000   21.0790000  
C 21.0700000   22.8910000   20.6180000  
C 20.6690000   24.2090000   20.2510000  
C 19.3150000   24.5240000   20.2560000  
C 18.3630000   23.4960000   20.5990000  
C 20.9740000   20.7650000   21.4350000  
C 22.2820000   21.0290000   21.1230000  
N 22.3300000   22.3990000   20.5930000  
O 23.1770000   19.0750000   22.0640000  
C 23.4370000   20.2140000   21.3630000  
O 24.5760000   20.5360000   21.0800000  
O 18.8740000   25.7760000   19.9340000  
O 17.0810000   23.8280000   20.5000000  
H 20.6690000   19.8730000   21.9420000  
H 22.2240000   19.0540000   22.0830000  
H 23.1560000   22.9070000   20.3410000  
H 19.5870000   26.3320000   20.1290000  
H 16.8730000   24.7890000   20.3720000  
H 21.4190000   24.9650000   19.9770000  
