76
010 
C 17.0680000   17.2820000   29.3140000  
C 17.2970000   18.7220000   29.5570000  
C 17.0890000   19.6620000   28.5820000  
C 16.7920000   19.3040000   27.2850000  
C 16.5800000   17.8850000   26.9340000  
C 16.6580000   16.9350000   27.8940000  
C 17.2310000   21.0540000   28.5250000  
C 17.0090000   21.4660000   27.1800000  
N 16.6480000   20.3820000   26.4460000  
O 17.2910000   23.8730000   27.4500000  
C 17.0370000   22.8400000   26.6000000  
O 16.8920000   23.0800000   25.3820000  
O 16.2790000   15.6230000   27.7640000  
O 17.2710000   16.4090000   30.1000000  
H 17.4960000   19.0110000   30.5580000  
H 17.4370000   21.6640000   29.4690000  
H 17.4040000   23.4500000   28.2690000  
H 15.7590000   15.6470000   27.0220000  
C 16.2480000   17.5760000   25.5680000  
C 17.2110000   17.7600000   24.5600000  
C 16.8640000   17.6810000   23.2080000  
C 15.5560000   17.2860000   22.7600000  
C 14.7070000   16.8250000   23.7840000  
C 14.9860000   17.0590000   25.1230000  
C 18.5760000   18.2520000   24.6250000  
C 18.9900000   18.3820000   23.3030000  
N 17.9270000   18.0180000   22.4540000  
O 21.1400000   19.0590000   23.9400000  
C 20.3150000   18.9590000   22.9250000  
O 20.6370000   19.2230000   21.7870000  
O 13.4280000   16.4000000   23.4880000  
O 14.0480000   16.7290000   26.1050000  
H 19.2220000   18.4390000   25.5040000  
H 20.6330000   18.7140000   24.7350000  
H 17.8110000   18.1540000   21.4270000  
H 13.4100000   16.4990000   22.4700000  
H 13.2510000   16.3050000   25.7210000  
C 15.1780000   17.4460000   21.3220000  
C 14.6520000   16.3620000   20.5190000  
C 14.4060000   16.5250000   19.1870000  
C 14.6290000   17.6740000   18.4680000  
C 15.2580000   18.7860000   19.1670000  
C 15.5660000   18.6200000   20.5530000  
C 14.3580000   14.9920000   20.7550000  
C 13.9430000   14.3930000   19.6030000  
N 13.9710000   15.3510000   18.5850000  
O 13.6940000   12.1370000   20.4640000  
C 13.5010000   12.9730000   19.4390000  
O 12.9720000   12.6060000   18.3830000  
O 15.6280000   19.9600000   18.5350000  
O 16.1810000   19.6880000   21.1890000  
H 14.4350000   14.4690000   21.6730000  
H 13.7280000   12.7450000   21.1900000  
H 13.8140000   15.1840000   17.6480000  
H 15.3120000   19.8030000   17.5990000  
H 16.2020000   20.4000000   20.5130000  
C 14.4030000   17.6810000   16.9370000  
C 13.5620000   18.6570000   16.3680000  
C 13.3800000   18.6660000   14.9570000  
C 14.0620000   17.8710000   14.0830000  
C 14.9790000   16.9600000   14.6970000  
C 15.1720000   16.8740000   16.0910000  
C 12.8040000   19.6980000   16.9640000  
C 12.1780000   20.3390000   15.8820000  
N 12.6010000   19.7830000   14.6390000  
O 10.8860000   21.7390000   17.2020000  
C 11.1010000   21.3470000   15.9290000  
O 10.4990000   21.6640000   14.9590000  
O 15.7480000   16.2410000   13.8770000  
O 16.0620000   15.9290000   16.6260000  
H 12.6220000   19.7970000   18.0370000  
H 11.4080000   21.1900000   17.8050000  
H 12.3020000   20.0340000   13.7170000  
H 15.7990000   16.8370000   13.0640000  
H 16.6110000   15.6060000   15.9180000  
H 14.0500000   18.1330000   13.0340000  
