76
010 
C 13.8830000   12.8060000   26.6420000  
C 14.1640000   11.5470000   25.9460000  
C 14.7940000   11.4960000   24.7210000  
C 15.0510000   12.6780000   24.0410000  
C 14.7720000   13.9730000   24.5620000  
C 14.2210000   14.0550000   25.8670000  
C 15.2060000   10.4550000   23.8560000  
C 15.5460000   11.0110000   22.6350000  
N 15.5680000   12.4680000   22.8460000  
O 15.7210000    9.0190000   21.4860000  
C 15.8720000   10.3500000   21.3660000  
O 16.3740000   10.8420000   20.3900000  
O 13.8130000   15.1910000   26.5480000  
O 13.4130000   12.8050000   27.7680000  
H 13.7660000   10.6440000   26.3400000  
H 15.1080000    9.3690000   24.1240000  
H 15.1760000    8.9400000   22.2720000  
H 14.0220000   15.8880000   25.8920000  
C 15.1290000   15.1680000   23.7460000  
C 14.5480000   15.3440000   22.4820000  
C 14.8050000   16.4340000   21.7400000  
C 15.6700000   17.5290000   22.0840000  
C 16.2020000   17.3420000   23.4180000  
C 16.0090000   16.1950000   24.2070000  
C 13.5990000   14.5770000   21.7260000  
C 13.4680000   15.1940000   20.4590000  
N 14.1530000   16.4120000   20.5500000  
O 12.3500000   13.4830000   19.4500000  
C 12.8090000   14.6640000   19.2990000  
O 12.6540000   15.3260000   18.2740000  
O 17.0250000   18.3750000   23.8930000  
O 16.7670000   16.0000000   25.2880000  
H 13.1720000   13.5780000   22.0140000  
H 12.5430000   13.2900000   20.4200000  
H 14.2640000   17.0800000   19.7920000  
H 17.3360000   18.9300000   23.1030000  
H 17.4220000   16.7390000   25.3390000  
C 15.8040000   18.7580000   21.2110000  
C 15.1390000   19.9090000   21.5940000  
C 15.3130000   21.0130000   20.8310000  
C 16.0660000   21.1170000   19.6870000  
C 16.6700000   19.8920000   19.2450000  
C 16.5620000   18.6930000   20.0240000  
C 14.2690000   20.2350000   22.6520000  
C 13.8320000   21.5310000   22.4410000  
N 14.5830000   22.0710000   21.3860000  
O 11.6980000   21.4300000   23.4750000  
C 12.6660000   22.2900000   23.0420000  
O 12.5120000   23.5160000   23.1260000  
O 17.2880000   19.8830000   18.0050000  
O 17.3190000   17.5520000   19.6090000  
H 13.9610000   19.5510000   23.4520000  
H 11.9320000   20.5040000   23.2780000  
H 14.5990000   22.9980000   20.9720000  
H 17.2220000   20.8430000   17.6330000  
H 17.8000000   17.6220000   18.7900000  
C 16.4170000   22.4060000   19.0570000  
C 17.2880000   23.2090000   19.7480000  
C 17.8030000   24.4040000   19.2360000  
C 17.3750000   24.9180000   18.0300000  
C 16.5050000   24.0710000   17.2840000  
C 16.0440000   22.8350000   17.7960000  
C 17.9490000   23.1090000   21.0030000  
C 18.5780000   24.2710000   21.3330000  
N 18.4740000   25.0610000   20.2130000  
O 19.4040000   23.6800000   23.5760000  
C 19.2040000   24.6860000   22.6380000  
O 19.5940000   25.8530000   22.7990000  
O 15.9690000   24.4970000   16.1000000  
O 15.1370000   22.1540000   17.0110000  
H 18.0450000   22.2390000   21.7130000  
H 18.9500000   22.8780000   23.2580000  
H 18.6530000   26.0440000   20.1860000  
H 16.5420000   25.1260000   15.6820000  
H 14.9530000   22.6520000   16.2200000  
H 17.6590000   25.9900000   17.8540000  
