76
010 
C  9.8440000   14.2300000   24.6830000  
C  9.8750000   12.9940000   23.9310000  
C 10.8030000   12.8050000   22.9130000  
C 11.7580000   13.8210000   22.6710000  
C 11.8040000   15.0350000   23.3950000  
C 10.8420000   15.2800000   24.3230000  
C 11.0710000   11.7100000   22.0880000  
C 12.1290000   12.1270000   21.3450000  
N 12.5520000   13.3960000   21.7210000  
O 12.4020000   10.1280000   20.1210000  
C 12.8790000   11.3680000   20.3300000  
O 13.8600000   11.6360000   19.7160000  
O 10.6290000   16.4520000   25.0300000  
O  9.0280000   14.3840000   25.5790000  
H  9.2890000   12.1830000   24.2610000  
H 10.4830000   10.8600000   21.8770000  
H 11.5010000   10.0200000   20.5310000  
H  9.8590000   16.3790000   25.5860000  
C 12.8500000   15.9370000   23.0270000  
C 12.5550000   16.8890000   22.0210000  
C 13.5090000   17.6900000   21.4940000  
C 14.8670000   17.6820000   21.9720000  
C 15.1210000   16.7880000   23.0100000  
C 14.1730000   15.8720000   23.5010000  
C 11.3170000   17.1980000   21.3090000  
C 11.6510000   18.1360000   20.3090000  
N 12.9970000   18.5610000   20.5620000  
O  9.6810000   17.9790000   18.9980000  
C 10.7560000   18.6270000   19.2790000  
O 11.0920000   19.6330000   18.6890000  
O 16.4430000   16.7410000   23.5380000  
O 14.4150000   15.0350000   24.5130000  
H 10.3600000   16.5850000   21.3190000  
H  9.8750000   17.2100000   19.5530000  
H 13.5180000   19.2870000   20.0810000  
H 16.9820000   17.3430000   22.9820000  
H 15.4380000   15.0380000   24.6230000  
C 15.9220000   18.5800000   21.4650000  
C 16.4170000   19.5820000   22.2800000  
C 17.3130000   20.5030000   21.7810000  
C 17.8290000   20.3990000   20.4650000  
C 17.2790000   19.3650000   19.6240000  
C 16.3300000   18.5130000   20.1000000  
C 16.1440000   20.0200000   23.7190000  
C 16.8490000   21.2170000   23.8850000  
N 17.6330000   21.4580000   22.7620000  
O 16.0970000   21.6540000   25.9940000  
C 16.8770000   22.0950000   25.0160000  
O 17.4930000   23.1470000   25.1190000  
O 17.6370000   19.2850000   18.2980000  
O 15.8580000   17.5680000   19.2440000  
H 15.4340000   19.5020000   24.3930000  
H 15.9440000   20.7850000   25.6370000  
H 18.2760000   22.2220000   22.6700000  
H 18.4390000   19.7280000   18.1890000  
H 16.3520000   17.4860000   18.4060000  
C 18.8580000   21.3650000   20.0370000  
C 20.1890000   21.1730000   20.4620000  
C 21.1950000   22.0250000   20.0790000  
C 20.9240000   23.1450000   19.2380000  
C 19.6130000   23.4020000   18.8920000  
C 18.5500000   22.5270000   19.2760000  
C 20.7900000   20.1540000   21.3530000  
C 22.1270000   20.5280000   21.5350000  
N 22.3750000   21.6090000   20.6630000  
O 22.7440000   18.8920000   23.2200000  
C 23.1570000   19.9020000   22.4160000  
O 24.2900000   20.3280000   22.5080000  
O 19.2800000   24.5720000   18.2150000  
O 17.2560000   22.8840000   19.0310000  
H 20.3750000   19.2160000   21.7530000  
H 21.9110000   18.6110000   22.8970000  
H 23.2460000   22.0270000   20.4480000  
H 20.0890000   25.0530000   18.0690000  
H 17.2150000   23.8990000   19.0810000  
H 21.7320000   23.7800000   18.8850000  
