76
010 
C 10.5010000   13.6210000   24.9210000  
C  9.1490000   14.1150000   24.5360000  
C  9.0130000   15.3060000   23.8230000  
C 10.0820000   15.8950000   23.2210000  
C 11.4250000   15.4740000   23.5420000  
C 11.5930000   14.3770000   24.3250000  
C  7.9010000   15.9830000   23.3770000  
C  8.3520000   17.0710000   22.6180000  
N  9.7260000   16.9570000   22.4640000  
O  6.2290000   18.1840000   22.6170000  
C  7.5100000   18.1300000   22.0720000  
O  7.8200000   18.9050000   21.1850000  
O 12.7710000   13.9720000   24.7490000  
O 10.6730000   12.6950000   25.6410000  
H  8.3550000   13.5150000   24.8050000  
H  6.8260000   15.8430000   23.7100000  
H  6.1440000   17.6780000   23.4420000  
H 12.5810000   13.3780000   25.5330000  
C 12.5450000   16.2580000   22.9410000  
C 12.6710000   17.6430000   23.1270000  
C 13.7780000   18.2890000   22.6590000  
C 14.8640000   17.7040000   21.9260000  
C 14.6380000   16.3430000   21.6120000  
C 13.5450000   15.6140000   22.0940000  
C 11.8500000   18.6510000   23.7720000  
C 12.5190000   19.8780000   23.7010000  
N 13.7320000   19.6420000   22.9680000  
O 10.8870000   21.0220000   24.9600000  
C 12.1440000   21.1380000   24.3720000  
O 12.8630000   22.0880000   24.4340000  
O 15.5400000   15.6350000   20.8200000  
O 13.3740000   14.2890000   21.7480000  
H 10.9340000   18.4660000   24.2560000  
H 10.6770000   20.0900000   24.8590000  
H 14.3660000   20.3100000   22.7370000  
H 16.5040000   15.9650000   20.7850000  
H 14.2440000   14.0090000   21.3930000  
C 16.0710000   18.4300000   21.4870000  
C 17.3560000   18.0980000   22.0010000  
C 18.4510000   18.8600000   21.5530000  
C 18.4800000   19.8070000   20.4830000  
C 17.2160000   20.0340000   19.9240000  
C 16.0300000   19.3740000   20.3840000  
C 17.8780000   17.1640000   22.9540000  
C 19.2460000   17.4680000   23.1290000  
N 19.5860000   18.5360000   22.2480000  
O 19.8330000   15.8080000   24.6830000  
C 20.2540000   16.6730000   23.8080000  
O 21.4320000   16.8120000   23.6950000  
O 17.1360000   20.9970000   18.9390000  
O 14.8470000   19.6630000   19.7160000  
H 17.2670000   16.5120000   23.6100000  
H 18.8810000   15.8220000   24.5650000  
H 20.5010000   18.9860000   22.1670000  
H 18.0390000   21.2860000   18.6550000  
H 14.9130000   20.6290000   19.5640000  
C 19.7290000   20.4960000   19.9980000  
C 20.5470000   19.8470000   19.1190000  
C 21.6970000   20.5390000   18.6210000  
C 22.0670000   21.8170000   19.0260000  
C 21.2120000   22.4910000   19.9350000  
C 19.9730000   21.8470000   20.3870000  
C 20.5390000   18.5650000   18.4740000  
C 21.6190000   18.5090000   17.5900000  
N 22.3030000   19.7680000   17.6580000  
O 21.1700000   16.3680000   16.7230000  
C 21.9060000   17.4730000   16.5910000  
O 22.7570000   17.6020000   15.7120000  
O 21.5970000   23.7650000   20.3970000  
O 19.1500000   22.4720000   21.2670000  
H 19.7910000   17.8010000   18.7500000  
H 20.5420000   16.4820000   17.5110000  
H 23.0640000   19.9810000   17.0650000  
H 22.5850000   23.8360000   20.1950000  
H 19.6470000   23.1270000   21.8880000  
H 23.0390000   22.2750000   18.7510000  
