76
010 
C 20.1890000   17.7990000   27.1790000  
C 21.0040000   16.5100000   27.2690000  
C 20.6940000   15.6010000   26.3240000  
C 19.8670000   15.8180000   25.2210000  
C 19.1370000   17.0570000   25.0510000  
C 19.2490000   18.0010000   26.0350000  
C 21.0940000   14.1990000   26.2110000  
C 20.6600000   13.8090000   24.9600000  
N 19.8010000   14.7680000   24.3690000  
O 21.7140000   11.6290000   25.1450000  
C 21.0320000   12.4950000   24.3490000  
O 20.7370000   12.2040000   23.2170000  
O 18.4880000   19.1060000   26.0740000  
O 20.3190000   18.6570000   28.0490000  
H 21.5530000   16.3350000   28.1570000  
H 21.6790000   13.7720000   26.9430000  
H 22.2750000   12.1320000   25.7720000  
H 17.9480000   19.2040000   25.2500000  
C 18.2780000   17.1760000   23.8390000  
C 17.0690000   16.4230000   23.7430000  
C 16.1830000   16.6330000   22.7010000  
C 16.3180000   17.7300000   21.8170000  
C 17.4560000   18.4980000   21.9690000  
C 18.4390000   18.2590000   22.9590000  
C 16.6180000   15.1780000   24.4140000  
C 15.4560000   14.7720000   23.7150000  
N 15.1490000   15.6890000   22.7120000  
O 15.3160000   12.6930000   24.8610000  
C 14.7550000   13.4680000   23.9090000  
O 13.7590000   13.1080000   23.3020000  
O 17.5790000   19.4970000   21.0570000  
O 19.5910000   18.9370000   22.9140000  
H 17.0150000   14.7130000   25.3450000  
H 16.2210000   13.0990000   25.0770000  
H 14.3230000   15.7430000   22.1220000  
H 16.7340000   19.5220000   20.5950000  
H 19.6340000   19.4410000   22.1160000  
C 15.2240000   18.1260000   20.8660000  
C 14.4840000   19.2650000   21.0940000  
C 13.4060000   19.5050000   20.3340000  
C 12.9110000   18.7540000   19.2750000  
C 13.5520000   17.5450000   19.1450000  
C 14.7160000   17.2240000   19.9070000  
C 14.8160000   20.4330000   21.8820000  
C 13.8970000   21.3540000   21.4780000  
N 12.9870000   20.7920000   20.6000000  
O 14.6920000   23.0860000   22.9610000  
C 13.7760000   22.7490000   22.0320000  
O 12.8600000   23.4870000   21.7780000  
O 13.2370000   16.6100000   18.1550000  
O 15.3930000   16.0280000   19.6560000  
H 15.4670000   20.4810000   22.7180000  
H 15.2890000   22.3720000   23.0020000  
H 12.2090000   21.2960000   20.2090000  
H 12.6190000   17.1150000   17.6290000  
H 14.8290000   15.4980000   19.1000000  
C 11.8200000   19.2300000   18.4230000  
C 11.8680000   20.5270000   17.7810000  
C 10.7570000   21.0100000   17.1420000  
C  9.4870000   20.3550000   17.0060000  
C  9.4780000   19.0440000   17.4950000  
C 10.6040000   18.4800000   18.1380000  
C 12.8720000   21.5920000   17.7090000  
C 12.2610000   22.7380000   17.2050000  
N 11.0080000   22.2240000   16.6820000  
O 14.0940000   24.2190000   17.4240000  
C 12.8450000   24.0740000   17.0600000  
O 12.1810000   24.9980000   16.6730000  
O  8.3530000   18.2460000   17.3040000  
O 10.4790000   17.2640000   18.8290000  
H 13.7650000   21.6410000   18.2770000  
H 14.4640000   23.3230000   17.5340000  
H 10.3360000   22.7600000   16.1610000  
H  7.7560000   18.5430000   16.5450000  
H  9.5320000   16.9260000   18.8720000  
H  8.6760000   20.7630000   16.3480000  
