76
010 
C 16.8710000   17.1420000   29.2280000  
C 18.1870000   17.8230000   29.5200000  
C 18.7730000   18.5330000   28.4520000  
C 18.2500000   18.5900000   27.1560000  
C 17.1070000   17.7900000   26.7930000  
C 16.4300000   17.0400000   27.8230000  
C 19.8910000   19.3640000   28.4350000  
C 19.9200000   19.9290000   27.1480000  
N 18.8660000   19.4150000   26.3830000  
O 21.9180000   21.0930000   27.3430000  
C 20.8890000   20.9160000   26.5720000  
O 20.6730000   21.5410000   25.5710000  
O 15.3910000   16.2840000   27.5680000  
O 16.2640000   16.6340000   30.1630000  
H 18.6690000   17.7410000   30.4750000  
H 20.6380000   19.5270000   29.2230000  
H 21.6660000   20.4750000   28.0440000  
H 15.1800000   16.4310000   26.5810000  
C 16.4660000   17.9660000   25.4310000  
C 17.2570000   17.5610000   24.3410000  
C 16.7640000   17.6810000   23.0860000  
C 15.4380000   18.0110000   22.7530000  
C 14.6710000   18.4130000   23.8830000  
C 15.1500000   18.4000000   25.2070000  
C 18.5380000   16.8920000   24.2490000  
C 18.5770000   16.4630000   22.9060000  
N 17.5430000   17.0290000   22.1690000  
O 20.8060000   15.5600000   23.0770000  
C 19.7340000   15.7930000   22.2490000  
O 19.7830000   15.4430000   21.0600000  
O 13.3600000   18.8160000   23.6990000  
O 14.3160000   18.6570000   26.2560000  
H 19.1440000   16.4970000   25.0440000  
H 20.6330000   15.8840000   23.9670000  
H 17.4790000   17.0860000   21.1390000  
H 13.3010000   19.0000000   22.7700000  
H 13.6410000   19.2690000   26.0380000  
C 14.9480000   18.0120000   21.3220000  
C 13.8360000   17.2570000   20.8620000  
C 13.4450000   17.2870000   19.5230000  
C 14.0710000   18.0110000   18.4770000  
C 15.1320000   18.8150000   18.9940000  
C 15.5600000   18.7880000   20.3450000  
C 12.9080000   16.4020000   21.4990000  
C 12.0630000   15.8990000   20.5570000  
N 12.3240000   16.5400000   19.3240000  
O 10.9670000   14.2290000   21.8020000  
C 10.9910000   14.8480000   20.6650000  
O 10.2860000   14.4420000   19.7630000  
O 15.8060000   19.6440000   18.0990000  
O 16.4840000   19.7900000   20.7920000  
H 13.0150000   15.9840000   22.4280000  
H 11.8110000   14.4530000   22.1960000  
H 11.8360000   16.3490000   18.4460000  
H 15.2550000   19.6340000   17.2630000  
H 16.6200000   20.3820000   20.0760000  
C 13.6570000   18.0260000   17.0440000  
C 13.2980000   19.1970000   16.3020000  
C 12.8720000   19.0960000   14.9710000  
C 12.6410000   17.9000000   14.3200000  
C 12.9250000   16.7080000   15.0380000  
C 13.4680000   16.7450000   16.3270000  
C 13.2540000   20.5650000   16.6830000  
C 12.9740000   21.2290000   15.5160000  
N 12.7690000   20.3280000   14.4550000  
O 12.8720000   23.4780000   16.3540000  
C 12.8110000   22.6840000   15.2370000  
O 12.6780000   23.1670000   14.1170000  
O 12.8670000   15.5080000   14.2920000  
O 13.7120000   15.5550000   16.9420000  
H 13.4200000   21.0610000   17.6710000  
H 12.8360000   22.8230000   17.0930000  
H 12.5570000   20.5400000   13.4700000  
H 12.4310000   15.7650000   13.5020000  
H 13.7630000   14.8910000   16.1860000  
H 12.3890000   17.9160000   13.2630000  
