76
010 
C 11.2190000   11.9320000   21.5780000  
C 12.0020000   10.8420000   22.1680000  
C 13.2400000   11.0860000   22.6850000  
C 13.9440000   12.3360000   22.5410000  
C 13.2600000   13.4670000   22.0270000  
C 11.9480000   13.2780000   21.5240000  
C 14.1930000   10.2090000   23.2590000  
C 15.3030000   10.9340000   23.4480000  
N 15.2150000   12.2220000   23.0000000  
O 16.3370000    9.2780000   24.8530000  
C 16.4550000   10.5320000   24.3240000  
O 17.3870000   11.2910000   24.5750000  
O 11.1850000   14.3710000   21.2710000  
O 10.0500000   11.7960000   21.3310000  
H 11.5410000    9.9480000   22.1520000  
H 13.9910000    9.1710000   23.3520000  
H 15.5230000    8.7810000   24.6180000  
H 11.7970000   15.1600000   21.3650000  
C 13.9040000   14.8150000   22.1280000  
C 14.8380000   15.1250000   21.1490000  
C 15.2210000   16.4530000   21.0950000  
C 15.1300000   17.3650000   22.1170000  
C 14.4210000   16.8940000   23.2720000  
C 13.7620000   15.6150000   23.2790000  
C 15.1480000   14.4890000   19.8780000  
C 15.7230000   15.4920000   19.1280000  
N 15.7860000   16.6880000   19.9160000  
O 15.9890000   14.0810000   17.2120000  
C 16.1950000   15.3130000   17.6880000  
O 16.8370000   16.2240000   17.1480000  
O 14.2550000   17.6810000   24.3900000  
O 13.0080000   15.2160000   24.3430000  
H 15.0770000   13.4310000   19.6740000  
H 15.3980000   13.6830000   17.8830000  
H 16.3490000   17.5800000   19.7980000  
H 15.0120000   18.3420000   24.4050000  
H 12.9780000   15.9140000   24.9400000  
C 15.8240000   18.7520000   22.0620000  
C 15.4260000   19.7090000   21.1130000  
C 16.0220000   20.8940000   21.0210000  
C 17.1530000   21.2630000   21.7430000  
C 17.4960000   20.3980000   22.8200000  
C 16.8010000   19.1960000   22.9970000  
C 14.3390000   19.7460000   20.1720000  
C 14.5190000   20.8990000   19.4080000  
N 15.4170000   21.7470000   20.0870000  
O 13.2070000   20.2280000   17.5050000  
C 13.9030000   21.2830000   18.0680000  
O 14.1170000   22.3260000   17.5020000  
O 18.4080000   20.8190000   23.7450000  
O 17.1990000   18.4410000   24.0350000  
H 13.6260000   18.9300000   19.9650000  
H 13.3150000   19.4570000   18.0990000  
H 15.7740000   22.6660000   19.7610000  
H 18.3750000   21.8030000   23.7890000  
H 18.0670000   18.8040000   24.2950000  
C 17.8680000   22.6050000   21.6670000  
C 17.3280000   23.8080000   22.2340000  
C 18.0290000   24.9610000   22.1590000  
C 19.3130000   25.0590000   21.5580000  
C 19.8490000   23.8830000   21.1030000  
C 19.2100000   22.6380000   21.0900000  
C 16.1000000   24.0940000   22.9500000  
C 16.1370000   25.4450000   23.2000000  
N 17.3150000   25.9990000   22.7010000  
O 14.2190000   25.3690000   24.5550000  
C 15.1350000   26.1480000   24.0140000  
O 15.1530000   27.3610000   24.1740000  
O 21.0640000   24.0010000   20.5620000  
O 19.7370000   21.4560000   20.6580000  
H 15.4180000   23.3330000   23.2910000  
H 14.5660000   24.4750000   24.3650000  
H 17.6160000   27.0040000   22.6720000  
H 21.3690000   24.9380000   20.5560000  
H 20.7010000   21.6180000   20.6660000  
H 19.8550000   26.0370000   21.5410000  
