76
010 
C  9.5970000   20.8280000   25.0830000  
C  9.1310000   19.7760000   26.0160000  
C  9.9340000   18.6760000   26.3200000  
C 11.1680000   18.5270000   25.7650000  
C 11.7560000   19.5440000   24.9330000  
C 10.9600000   20.5960000   24.5770000  
C  9.7170000   17.5760000   27.1150000  
C 10.8910000   16.8650000   26.9980000  
N 11.7960000   17.4640000   26.1590000  
O 10.4700000   15.2280000   28.7020000  
C 11.2680000   15.5750000   27.7220000  
O 12.2210000   14.8560000   27.4120000  
O 11.4270000   21.5370000   23.7170000  
O  8.8600000   21.7480000   24.6930000  
H  8.0790000   19.9230000   26.3270000  
H  8.8070000   17.2430000   27.6290000  
H  9.8190000   15.9440000   28.7690000  
H 12.2330000   21.3230000   23.2550000  
C 13.0680000   19.3060000   24.3400000  
C 13.1480000   18.2860000   23.4080000  
C 14.3380000   18.0100000   22.7600000  
C 15.5270000   18.7360000   22.9470000  
C 15.5100000   19.6270000   24.0360000  
C 14.2800000   19.9190000   24.6940000  
C 12.2390000   17.2970000   22.8610000  
C 12.8510000   16.4840000   21.9420000  
N 14.1910000   16.9320000   21.9140000  
O 11.0570000   14.8820000   21.4360000  
C 12.3030000   15.3230000   21.1860000  
O 13.0030000   14.7520000   20.4040000  
O 16.5350000   20.4160000   24.3650000  
O 14.1990000   20.7590000   25.7690000  
H 11.2210000   17.2340000   23.1460000  
H 10.6630000   15.6010000   21.9090000  
H 14.9550000   16.4600000   21.4680000  
H 17.3650000   20.0850000   23.9730000  
H 15.0330000   21.1540000   25.8850000  
C 16.6000000   18.4170000   22.0110000  
C 16.4930000   18.6220000   20.6440000  
C 17.3690000   18.0990000   19.7840000  
C 18.5220000   17.3840000   20.1480000  
C 18.7270000   17.3730000   21.5650000  
C 17.8090000   17.9190000   22.5020000  
C 15.4910000   19.3160000   19.8540000  
C 15.8190000   19.0920000   18.5150000  
N 16.9890000   18.2800000   18.4720000  
O 14.1370000   20.3570000   17.4830000  
C 15.1920000   19.6110000   17.2530000  
O 15.7530000   19.4780000   16.1810000  
O 19.9040000   16.9340000   22.0410000  
O 18.0540000   17.8860000   23.8140000  
H 14.6550000   19.9220000   20.3130000  
H 13.9170000   20.3280000   18.4200000  
H 17.4140000   17.8790000   17.7050000  
H 20.6310000   16.9890000   21.3360000  
H 18.5730000   17.1340000   23.9150000  
C 19.3690000   16.8270000   19.0340000  
C 20.2510000   17.7100000   18.3990000  
C 20.9380000   17.2880000   17.3240000  
C 20.9150000   15.9640000   16.8850000  
C 20.1960000   15.0050000   17.6760000  
C 19.3850000   15.4760000   18.7090000  
C 20.5220000   19.0970000   18.5690000  
C 21.3990000   19.4200000   17.5790000  
N 21.6240000   18.3480000   16.8290000  
O 21.7070000   21.7260000   18.3190000  
C 21.9750000   20.7780000   17.3780000  
O 22.5590000   21.0880000   16.3400000  
O 20.1700000   13.7030000   17.3040000  
O 18.5660000   14.6680000   19.4780000  
H 20.1850000   19.7690000   19.3360000  
H 20.9280000   21.4280000   18.8120000  
H 22.1140000   18.3790000   15.9180000  
H 21.0380000   13.4820000   16.8640000  
H 18.0060000   14.0930000   18.8800000  
H 21.4410000   15.6370000   16.0090000  
