76
010 
C 13.1620000   21.6440000   28.2390000  
C 12.6030000   20.4380000   28.9460000  
C 12.5190000   19.2760000   28.2260000  
C 12.9510000   19.1530000   26.9110000  
C 13.6330000   20.2200000   26.2810000  
C 13.7380000   21.4620000   26.8800000  
C 12.1610000   18.0330000   28.6710000  
C 12.2920000   17.2070000   27.6050000  
N 12.9450000   17.8480000   26.5340000  
O 11.5770000   15.1990000   28.6750000  
C 12.0490000   15.7270000   27.5760000  
O 12.3100000   15.0140000   26.5980000  
O 14.3740000   22.5350000   26.3130000  
O 13.1960000   22.6940000   28.8590000  
H 12.3350000   20.5650000   30.0160000  
H 11.7520000   17.7390000   29.6240000  
H 11.4000000   15.8100000   29.3330000  
H 14.6380000   22.3260000   25.3710000  
C 14.2890000   20.0050000   24.9320000  
C 13.4990000   20.0740000   23.7770000  
C 13.8510000   19.4740000   22.6030000  
C 15.0850000   18.8580000   22.4630000  
C 15.9290000   18.8410000   23.5930000  
C 15.5600000   19.4230000   24.7830000  
C 12.1710000   20.5870000   23.4000000  
C 11.8920000   20.3180000   22.0550000  
N 12.9730000   19.5740000   21.5340000  
O  9.7990000   21.3770000   22.0050000  
C 10.7460000   20.7350000   21.2490000  
O 10.6640000   20.4980000   20.0610000  
O 17.1660000   18.2150000   23.5060000  
O 16.3490000   19.1980000   25.9000000  
H 11.4210000   20.9600000   24.0670000  
H 10.1280000   21.3360000   22.8700000  
H 13.1610000   19.1860000   20.6400000  
H 17.2780000   17.8540000   22.6010000  
H 17.1420000   18.7430000   25.5240000  
C 15.5290000   18.1360000   21.2130000  
C 16.3560000   18.6790000   20.2270000  
C 16.7430000   18.0310000   19.0650000  
C 16.4120000   16.6910000   18.7660000  
C 15.6130000   16.0280000   19.7950000  
C 15.2010000   16.7420000   20.9760000  
C 17.1500000   19.8940000   20.1810000  
C 18.0370000   19.8490000   19.0880000  
N 17.6970000   18.7020000   18.3820000  
O 19.2980000   21.7900000   19.6960000  
C 19.2420000   20.7140000   18.8520000  
O 20.0080000   20.5120000   17.9250000  
O 15.1960000   14.7470000   19.6350000  
O 14.6720000   16.0280000   22.0220000  
H 17.1320000   20.6180000   21.0060000  
H 18.4800000   21.7720000   20.2500000  
H 18.1420000   18.3680000   17.5600000  
H 15.5540000   14.4530000   18.7680000  
H 14.3990000   15.1390000   21.7710000  
C 16.9050000   16.0790000   17.4620000  
C 18.3300000   15.7660000   17.1960000  
C 18.7090000   15.0980000   16.0490000  
C 17.8140000   14.6790000   15.1060000  
C 16.4150000   15.0110000   15.3130000  
C 16.0170000   15.8020000   16.4050000  
C 19.4820000   15.9860000   17.9250000  
C 20.5100000   15.4170000   17.2810000  
N 20.0570000   14.9810000   16.0570000  
O 22.0700000   15.7150000   19.0480000  
C 21.9460000   15.4200000   17.7390000  
O 22.8750000   15.0850000   17.0710000  
O 15.5640000   14.6030000   14.3450000  
O 14.6820000   16.1400000   16.5270000  
H 19.5810000   16.5430000   18.8600000  
H 21.2340000   15.9520000   19.4080000  
H 20.6180000   14.6840000   15.2780000  
H 15.9480000   13.8320000   13.9210000  
H 14.2080000   15.9210000   15.7370000  
H 18.1220000   14.0630000   14.2740000  
