76
010 
C 18.1810000   11.9150000   25.1860000  
C 18.0930000   10.8290000   24.1690000  
C 17.7090000   11.1430000   22.9000000  
C 17.3810000   12.4460000   22.4820000  
C 17.4740000   13.5450000   23.3980000  
C 17.9210000   13.2990000   24.6830000  
C 17.5600000   10.2560000   21.7900000  
C 17.0910000   11.1000000   20.7750000  
N 17.0340000   12.4150000   21.2500000  
O 17.0780000    9.3320000   19.1870000  
C 16.8020000   10.6550000   19.4010000  
O 16.3190000   11.4190000   18.5740000  
O 18.0600000   14.2600000   25.5450000  
O 18.4800000   11.6680000   26.3560000  
H 18.3400000    9.8390000   24.5040000  
H 17.8060000    9.2260000   21.7510000  
H 17.2580000    8.8450000   20.0030000  
H 17.5890000   15.0210000   25.1850000  
C 17.0170000   14.8250000   22.8840000  
C 15.6730000   15.2080000   22.8680000  
C 15.2800000   16.4110000   22.4290000  
C 16.0720000   17.4040000   21.8490000  
C 17.4390000   17.0650000   21.8140000  
C 17.9010000   15.7290000   22.2330000  
C 14.4630000   14.5840000   23.3340000  
C 13.3770000   15.4160000   23.1180000  
N 13.8620000   16.5960000   22.5300000  
O 11.7420000   13.9190000   24.0020000  
C 12.0070000   15.0880000   23.3710000  
O 11.1230000   15.8110000   23.0140000  
O 18.3020000   17.9410000   21.1830000  
O 19.2580000   15.5520000   22.1700000  
H 14.4460000   13.5740000   23.7720000  
H 12.5950000   13.4550000   24.1920000  
H 13.3170000   17.2450000   21.9440000  
H 17.6980000   18.7200000   21.0680000  
H 19.6260000   16.1460000   21.5040000  
C 15.5600000   18.7540000   21.4580000  
C 15.7640000   19.8610000   22.2990000  
C 15.1790000   21.0660000   22.0710000  
C 14.5050000   21.3650000   20.8720000  
C 14.3460000   20.2630000   19.9730000  
C 14.8280000   18.9640000   20.2790000  
C 16.3400000   20.0050000   23.6000000  
C 16.0140000   21.2450000   24.0960000  
N 15.4550000   21.9920000   22.9920000  
O 16.6990000   20.8340000   26.3910000  
C 16.1730000   21.7540000   25.5220000  
O 16.0800000   22.9380000   25.7350000  
O 13.4800000   20.5070000   18.9640000  
O 14.6290000   17.9750000   19.3030000  
H 16.7240000   19.2180000   24.1990000  
H 17.0040000   20.0930000   25.9120000  
H 15.1560000   22.9320000   22.9160000  
H 13.3730000   21.4930000   18.9270000  
H 14.0760000   18.2870000   18.5580000  
C 13.9300000   22.8100000   20.7010000  
C 14.2530000   23.6310000   19.6100000  
C 13.7710000   24.9250000   19.5500000  
C 13.1000000   25.5380000   20.5410000  
C 12.5550000   24.7210000   21.5670000  
C 12.9360000   23.3540000   21.5800000  
C 15.0710000   23.4060000   18.4670000  
C 14.9040000   24.4720000   17.6370000  
N 14.1480000   25.4640000   18.3420000  
O 16.4560000   23.8670000   15.9640000  
C 15.5750000   24.7310000   16.3730000  
O 15.4170000   25.7180000   15.7040000  
O 11.5820000   25.2500000   22.3840000  
O 12.3840000   22.6030000   22.5030000  
H 15.6090000   22.4900000   18.2060000  
H 16.7670000   23.4220000   16.7540000  
H 14.1610000   26.4360000   18.0590000  
H 11.0500000   24.5900000   22.8310000  
H 12.7900000   21.7620000   22.3350000  
H 12.6910000   26.5750000   20.3770000  
