76
010 
C  8.0810000   16.7480000   23.1160000  
C  8.0270000   17.1880000   24.4960000  
C  9.1500000   17.5650000   25.1620000  
C 10.4340000   17.5820000   24.5820000  
C 10.5710000   17.1060000   23.2270000  
C  9.4430000   16.7070000   22.5250000  
C  9.3600000   18.1130000   26.4460000  
C 10.7170000   18.3570000   26.5490000  
N 11.3710000   18.0880000   25.3720000  
O 10.6250000   19.1230000   28.7730000  
C 11.4430000   18.9270000   27.7190000  
O 12.6330000   19.1810000   27.7840000  
O  9.4280000   16.3290000   21.2230000  
O  7.0660000   16.5310000   22.4940000  
H  7.0790000   17.1040000   25.0110000  
H  8.7120000   18.1280000   27.3560000  
H  9.7630000   18.9050000   28.4140000  
H 10.3490000   16.4790000   20.8830000  
C 11.9060000   17.2990000   22.6230000  
C 12.9940000   16.5560000   23.0550000  
C 14.2300000   16.8090000   22.6300000  
C 14.6320000   17.7300000   21.6910000  
C 13.5320000   18.5300000   21.3400000  
C 12.2350000   18.3500000   21.7740000  
C 13.1190000   15.4680000   24.0540000  
C 14.4580000   15.0720000   24.1200000  
N 15.0850000   15.9480000   23.2320000  
O 14.3730000   13.3880000   25.7800000  
C 15.1660000   14.1190000   24.9670000  
O 16.3880000   14.0170000   25.0040000  
O 13.7840000   19.6850000   20.5100000  
O 11.2250000   19.1720000   21.4010000  
H 12.3550000   14.8070000   24.4860000  
H 13.4290000   13.6730000   25.6520000  
H 16.1080000   16.0220000   23.0770000  
H 14.7640000   19.9060000   20.6180000  
H 11.5140000   19.8400000   20.7650000  
C 15.9980000   18.0480000   21.2190000  
C 16.3290000   18.1190000   19.9040000  
C 17.6090000   18.4080000   19.4810000  
C 18.7440000   18.4860000   20.3060000  
C 18.4090000   18.3720000   21.6860000  
C 17.0950000   18.2200000   22.1170000  
C 15.5280000   17.8480000   18.7330000  
C 16.3250000   18.0180000   17.6360000  
N 17.6800000   18.3980000   18.1280000  
O 14.5220000   17.3730000   16.2530000  
C 15.8450000   17.7970000   16.2420000  
O 16.5350000   17.9540000   15.2460000  
O 19.4140000   18.3890000   22.5720000  
O 16.8040000   18.1230000   23.4520000  
H 14.4300000   17.5170000   18.7890000  
H 14.3470000   17.2910000   17.2140000  
H 18.3810000   18.7780000   17.5370000  
H 20.2430000   17.9450000   22.2020000  
H 17.6750000   18.0960000   23.9080000  
C 20.0610000   18.5550000   19.7770000  
C 20.6540000   19.7790000   19.4280000  
C 21.9660000   19.9940000   19.0750000  
C 22.9570000   18.9440000   19.1830000  
C 22.4860000   17.7130000   19.6200000  
C 21.0530000   17.5150000   19.7980000  
C 20.0440000   21.0820000   19.3880000  
C 21.0370000   22.0180000   19.0710000  
N 22.2550000   21.3060000   18.8320000  
O 19.7600000   23.8060000   19.5590000  
C 20.9270000   23.4680000   19.0360000  
O 21.7450000   24.3080000   18.6920000  
O 23.4350000   16.6640000   19.8280000  
O 20.6730000   16.2710000   20.3380000  
H 19.0640000   21.3260000   19.7680000  
H 19.3610000   22.9390000   19.5540000  
H 23.1460000   21.7150000   18.7320000  
H 24.3870000   16.8790000   19.6390000  
H 21.4250000   15.5870000   20.4020000  
H 24.0140000   19.1720000   19.0590000  
