76
010 
C 21.1520000   13.5040000   23.5660000  
C 20.6490000   12.1880000   23.1930000  
C 19.3110000   12.1000000   22.8460000  
C 18.4680000   13.1940000   22.6970000  
C 18.9780000   14.5330000   22.9560000  
C 20.2610000   14.6670000   23.4280000  
C 18.5650000   11.0040000   22.4400000  
C 17.3120000   11.5360000   22.1520000  
N 17.2550000   12.9040000   22.2450000  
O 16.4890000    9.2840000   21.7200000  
C 16.1590000   10.6490000   21.7760000  
O 15.0330000   11.0820000   21.5250000  
O 20.7850000   15.8770000   23.7380000  
O 22.3500000   13.5790000   23.9560000  
H 21.2610000   11.2850000   23.3820000  
H 19.0130000   10.0450000   22.2990000  
H 17.3610000    9.2780000   22.0370000  
H 20.0660000   16.5230000   23.7070000  
C 18.1460000   15.7340000   22.7880000  
C 17.4190000   16.3200000   23.8970000  
C 16.4630000   17.2720000   23.5830000  
C 16.0990000   17.7170000   22.3040000  
C 16.8990000   17.2440000   21.2540000  
C 17.8260000   16.1770000   21.4570000  
C 17.4380000   16.1250000   25.3630000  
C 16.5600000   17.0830000   25.9000000  
N 15.8690000   17.6840000   24.8230000  
O 16.7180000   16.2710000   28.1320000  
C 16.1370000   17.1750000   27.3630000  
O 15.3500000   18.0990000   27.7700000  
O 16.5550000   17.5900000   19.9550000  
O 18.3660000   15.4790000   20.4250000  
H 17.9010000   15.2510000   25.8570000  
H 17.1930000   15.6920000   27.4810000  
H 15.0570000   18.2720000   24.8840000  
H 15.9530000   18.3580000   20.0110000  
H 17.8220000   15.8890000   19.7050000  
C 15.0490000   18.7540000   22.1340000  
C 15.3590000   20.0560000   21.7510000  
C 14.3780000   20.9020000   21.3020000  
C 13.0020000   20.6450000   21.3270000  
C 12.6590000   19.4050000   21.8130000  
C 13.6450000   18.4790000   22.3020000  
C 16.6440000   20.7660000   21.5790000  
C 16.2980000   21.9470000   20.9460000  
N 14.8900000   22.0540000   20.7880000  
O 18.5220000   22.8040000   20.9040000  
C 17.2140000   22.9910000   20.5440000  
O 16.8260000   24.0260000   19.9730000  
O 11.3920000   19.0320000   21.8340000  
O 13.2250000   17.3510000   22.8630000  
H 17.6330000   20.3510000   21.7870000  
H 18.7050000   21.9330000   21.3360000  
H 14.3800000   22.7770000   20.2230000  
H 10.9540000   19.6700000   21.2700000  
H 12.2950000   17.2820000   22.6030000  
C 12.0650000   21.6560000   20.7270000  
C 12.0770000   21.8860000   19.2970000  
C 11.1720000   22.7730000   18.7540000  
C 10.2870000   23.5660000   19.5010000  
C 10.3610000   23.4310000   20.9090000  
C 11.1210000   22.4310000   21.4570000  
C 12.8010000   21.3340000   18.2130000  
C 12.2140000   21.8270000   17.0120000  
N 11.2560000   22.8280000   17.3530000  
O 13.5520000   20.5820000   15.5170000  
C 12.6020000   21.5710000   15.6240000  
O 12.2010000   22.2290000   14.6460000  
O  9.5610000   24.2050000   21.6930000  
O 11.1460000   22.3390000   22.8690000  
H 13.7000000   20.8130000   18.3280000  
H 13.4860000   20.2720000   16.4170000  
H 10.5480000   23.1860000   16.7410000  
H  9.3070000   24.9690000   21.2020000  
H 10.7500000   23.0590000   23.3330000  
H  9.6510000   24.3750000   19.1290000  
