76
010 
C  8.9480000   15.9210000   24.8150000  
C  8.4760000   17.1050000   25.4920000  
C  9.1440000   18.2610000   25.3360000  
C 10.2510000   18.4250000   24.5390000  
C 10.8300000   17.2680000   23.8910000  
C 10.2030000   16.0370000   24.0170000  
C  8.9000000   19.5570000   25.8240000  
C  9.8410000   20.3880000   25.2960000  
N 10.7100000   19.7040000   24.4350000  
O  9.2970000   22.3460000   26.6800000  
C 10.0450000   21.9020000   25.6380000  
O 10.8900000   22.6030000   25.1250000  
O 10.7960000   14.9120000   23.5020000  
O  8.3660000   14.8560000   24.9110000  
H  7.5310000   16.9600000   26.1140000  
H  8.1950000   19.8680000   26.5650000  
H  8.7610000   21.6340000   26.8900000  
H 10.2260000   14.1820000   23.6250000  
C 12.0660000   17.3760000   23.0920000  
C 13.2140000   17.9310000   23.6410000  
C 14.3440000   18.1410000   22.9030000  
C 14.5130000   17.6790000   21.5870000  
C 13.3700000   17.1330000   20.9810000  
C 12.1750000   16.9640000   21.7180000  
C 13.4710000   18.4470000   24.9790000  
C 14.7980000   18.8690000   24.9900000  
N 15.3670000   18.6220000   23.7240000  
O 14.8140000   19.5070000   27.2630000  
C 15.5460000   19.3540000   26.1650000  
O 16.7500000   19.5630000   26.1790000  
O 13.3740000   16.6860000   19.6310000  
O 11.1000000   16.4860000   21.0480000  
H 12.7240000   18.5860000   25.8460000  
H 13.8930000   19.4610000   26.9640000  
H 16.3740000   18.6460000   23.4940000  
H 13.9450000   17.1510000   19.0280000  
H 11.4690000   16.2460000   20.1420000  
C 15.8430000   17.8040000   20.9150000  
C 16.7580000   16.7590000   20.8540000  
C 18.0580000   16.9650000   20.3940000  
C 18.6500000   18.2360000   20.0140000  
C 17.6630000   19.3150000   19.9550000  
C 16.3400000   19.0750000   20.4050000  
C 16.6910000   15.3490000   21.1910000  
C 17.9870000   14.8280000   21.0890000  
N 18.8190000   15.8170000   20.4680000  
O 17.3620000   12.7020000   21.9180000  
C 18.3600000   13.4320000   21.3340000  
O 19.4680000   12.9600000   21.1970000  
O 17.9830000   20.5960000   19.6220000  
O 15.4840000   20.1890000   20.2200000  
H 15.9470000   14.8850000   21.7280000  
H 16.5770000   13.2460000   21.7770000  
H 19.8030000   15.8210000   20.2040000  
H 18.9510000   20.6840000   19.4310000  
H 15.9420000   20.8350000   19.6610000  
C 20.0090000   18.5090000   19.5940000  
C 20.1720000   19.1620000   18.3280000  
C 21.4080000   19.4590000   17.8420000  
C 22.5820000   19.1430000   18.5350000  
C 22.4680000   18.4100000   19.7270000  
C 21.2070000   18.1830000   20.2840000  
C 19.2200000   19.5380000   17.2870000  
C 19.9820000   19.9500000   16.2370000  
N 21.3020000   19.9970000   16.5540000  
O 18.0980000   20.2670000   14.8000000  
C 19.4360000   20.2410000   14.8710000  
O 20.1520000   20.3610000   13.8970000  
O 23.6170000   17.9820000   20.3510000  
O 20.9900000   17.5280000   21.4880000  
H 18.1660000   19.3370000   17.2840000  
H 17.8040000   20.0290000   15.6450000  
H 22.0640000   20.0450000   15.9440000  
H 23.3710000   17.5980000   21.1810000  
H 21.0500000   18.1130000   22.2520000  
H 23.5890000   19.3930000   18.0880000  
