76
010 
C 12.1390000   11.8960000   24.9360000  
C 13.0290000   10.7970000   24.6230000  
C 14.1920000   11.0500000   23.8980000  
C 14.6240000   12.3460000   23.5630000  
C 13.8770000   13.4850000   23.8520000  
C 12.6100000   13.2210000   24.4160000  
C 15.2920000   10.2270000   23.5560000  
C 16.2420000   11.0070000   22.9950000  
N 15.8490000   12.3750000   23.0670000  
O 17.7840000    9.3080000   22.6580000  
C 17.5730000   10.5580000   22.5150000  
O 18.4600000   11.2970000   22.0850000  
O 11.7560000   14.2440000   24.6290000  
O 11.1570000   11.7660000   25.7000000  
H 12.7790000    9.8170000   24.9910000  
H 15.3390000    9.1770000   23.8210000  
H 17.0140000    8.8650000   23.0540000  
H 12.1220000   15.0620000   24.2040000  
C 14.3470000   14.8980000   23.4640000  
C 13.6530000   15.5160000   22.4340000  
C 14.0650000   16.7180000   21.9900000  
C 15.2270000   17.4090000   22.4030000  
C 15.8580000   16.8480000   23.5030000  
C 15.4260000   15.6300000   24.0690000  
C 12.4550000   15.1180000   21.7120000  
C 12.3020000   16.0900000   20.7420000  
N 13.2960000   17.0640000   20.9530000  
O 10.2990000   15.1330000   19.9580000  
C 11.2820000   16.0280000   19.6560000  
O 11.1780000   16.8260000   18.7410000  
O 17.0070000   17.4910000   23.9150000  
O 16.0370000   15.1010000   25.1500000  
H 11.8560000   14.2100000   21.8890000  
H 10.6600000   14.5770000   20.7000000  
H 13.5540000   17.8660000   20.3050000  
H 17.0940000   18.2330000   23.2680000  
H 16.8330000   15.5630000   25.4320000  
C 15.6650000   18.7160000   21.6470000  
C 15.7040000   19.9920000   22.2590000  
C 15.9870000   21.1530000   21.5830000  
C 16.3360000   21.2220000   20.2360000  
C 16.1920000   19.9480000   19.5200000  
C 15.9390000   18.7710000   20.2200000  
C 15.2560000   20.3800000   23.5660000  
C 15.3520000   21.7870000   23.6590000  
N 15.8650000   22.2280000   22.4180000  
O 14.9980000   22.0070000   25.9300000  
C 15.0410000   22.6760000   24.7490000  
O 14.8620000   23.8500000   24.6530000  
O 16.2480000   19.9820000   18.2040000  
O 15.8690000   17.5770000   19.5500000  
H 14.7980000   19.7510000   24.3240000  
H 15.2870000   21.1010000   25.6210000  
H 15.8470000   23.2130000   22.0910000  
H 16.3210000   20.9080000   18.0010000  
H 15.7980000   17.7560000   18.5880000  
C 16.4690000   22.5660000   19.5290000  
C 17.7330000   23.0990000   19.1440000  
C 17.9260000   24.3580000   18.6220000  
C 16.8440000   25.1360000   18.2960000  
C 15.5700000   24.6940000   18.6050000  
C 15.3510000   23.4320000   19.2320000  
C 19.0300000   22.6310000   19.5430000  
C 19.9380000   23.6850000   19.2680000  
N 19.2560000   24.6910000   18.5860000  
O 22.0480000   22.6090000   20.0680000  
C 21.4110000   23.7310000   19.5020000  
O 22.0650000   24.7190000   19.1710000  
O 14.4530000   25.4880000   18.4320000  
O 14.1290000   22.8890000   19.4430000  
H 19.3130000   21.7210000   20.1680000  
H 21.4040000   21.9070000   19.7840000  
H 19.6240000   25.5410000   18.1920000  
H 14.7290000   26.3320000   18.1170000  
H 13.4590000   23.5880000   19.2970000  
H 17.0150000   26.1430000   17.9710000  
