76
010 
C 21.3170000   15.1870000   25.1240000  
C 21.2900000   13.6560000   25.0770000  
C 20.3420000   12.9950000   24.3430000  
C 19.3600000   13.7310000   23.6630000  
C 19.2870000   15.2000000   23.7160000  
C 20.2860000   15.8880000   24.3970000  
C 20.1260000   11.6390000   23.9960000  
C 18.9420000   11.6140000   23.2000000  
N 18.5150000   12.9600000   22.9980000  
O 19.0790000    9.2830000   22.7330000  
C 18.3840000   10.4560000   22.4040000  
O 17.4440000   10.4240000   21.6220000  
O 20.3200000   17.2420000   24.4520000  
O 22.1550000   15.7660000   25.7900000  
H 22.0950000   13.1790000   25.6680000  
H 20.6530000   10.8030000   24.2880000  
H 19.5640000    9.4460000   23.5770000  
H 19.4540000   17.4090000   24.0850000  
C 18.1050000   15.8610000   23.0360000  
C 16.9270000   16.1660000   23.7370000  
C 15.8760000   16.8540000   23.2290000  
C 15.9030000   17.3410000   21.8500000  
C 17.0480000   16.9810000   21.1190000  
C 18.1570000   16.3400000   21.6750000  
C 16.5190000   15.7620000   25.1060000  
C 15.2210000   16.2710000   25.2720000  
N 14.8770000   16.9380000   24.0700000  
O 14.7790000   15.2620000   27.4330000  
C 14.3250000   16.1280000   26.4630000  
O 13.2320000   16.6560000   26.4800000  
O 17.0500000   17.2880000   19.8200000  
O 19.3490000   16.2060000   21.0560000  
H 16.9690000   15.0980000   25.8270000  
H 15.6110000   14.9660000   27.1550000  
H 13.8990000   17.2480000   23.8560000  
H 16.3220000   17.9160000   19.6130000  
H 19.1480000   16.1480000   20.0860000  
C 14.8440000   18.2780000   21.3410000  
C 15.1340000   19.5090000   20.8360000  
C 14.1490000   20.4210000   20.5530000  
C 12.7850000   20.1560000   20.5600000  
C 12.4340000   18.8440000   21.0220000  
C 13.4150000   17.9330000   21.3600000  
C 16.3700000   20.1560000   20.7300000  
C 16.1370000   21.5010000   20.2830000  
N 14.7200000   21.6350000   20.1870000  
O 18.4100000   22.1130000   20.1950000  
C 17.1860000   22.5540000   20.0530000  
O 16.9390000   23.7100000   19.8540000  
O 11.1250000   18.4290000   20.8750000  
O 12.9020000   16.7260000   21.7230000  
H 17.3000000   19.7280000   20.9760000  
H 18.3320000   21.1260000   20.1390000  
H 14.2420000   22.5540000   20.0550000  
H 10.8120000   19.0990000   20.2730000  
H 11.8990000   16.7640000   21.7970000  
C 11.7530000   21.2260000   20.3420000  
C 11.7680000   21.8860000   19.0570000  
C 10.8280000   22.8870000   18.8420000  
C  9.8970000   23.3420000   19.7690000  
C  9.8110000   22.6020000   20.9690000  
C 10.7200000   21.5640000   21.2450000  
C 12.6600000   21.9880000   17.9170000  
C 12.1820000   22.9660000   17.0360000  
N 11.1480000   23.6150000   17.6960000  
O 14.0430000   22.8100000   15.6220000  
C 12.7840000   23.3270000   15.7700000  
O 12.2860000   24.0710000   14.9430000  
O  8.7850000   22.8750000   21.8810000  
O 10.6360000   20.8740000   22.4930000  
H 13.4920000   21.3340000   17.6270000  
H 14.1770000   22.1950000   16.3370000  
H 10.5140000   24.2590000   17.2080000  
H  8.2970000   23.6740000   21.5700000  
H 10.0060000   21.2220000   23.1010000  
H  9.2610000   24.2680000   19.5790000  
