76
010 
C 10.4460000   13.9770000   25.2770000  
C  9.3730000   13.5860000   24.3070000  
C  9.2670000   14.2090000   23.0770000  
C 10.1180000   15.2050000   22.7020000  
C 11.2420000   15.6370000   23.5150000  
C 11.4120000   14.9960000   24.7350000  
C  8.4370000   13.9660000   21.9130000  
C  8.9230000   14.8540000   20.9840000  
N  9.9740000   15.6410000   21.4810000  
O  7.3080000   14.3420000   19.3260000  
C  8.2870000   15.0800000   19.6210000  
O  8.6300000   16.0140000   18.9160000  
O 12.4590000   15.1450000   25.5970000  
O 10.4790000   13.4340000   26.4230000  
H  8.6400000   12.9030000   24.6600000  
H  7.6200000   13.2170000   21.7930000  
H  7.0140000   14.1090000   20.2080000  
H 12.4200000   14.5120000   26.2870000  
C 12.3660000   16.4420000   22.8930000  
C 12.8750000   17.6310000   23.5290000  
C 13.9320000   18.3660000   22.9430000  
C 14.5220000   17.9960000   21.7220000  
C 14.0700000   16.7600000   21.1460000  
C 12.9870000   16.0440000   21.7130000  
C 12.5310000   18.4420000   24.7040000  
C 13.3530000   19.5390000   24.7750000  
N 14.2310000   19.4900000   23.6780000  
O 12.5060000   20.4370000   26.7890000  
C 13.4440000   20.5760000   25.8240000  
O 14.2970000   21.4950000   25.7240000  
O 14.8070000   16.2630000   20.1530000  
O 12.7290000   14.8360000   21.0890000  
H 11.8110000   18.1960000   25.4590000  
H 11.9390000   19.6750000   26.5700000  
H 14.9750000   20.1030000   23.4870000  
H 15.4730000   16.9490000   19.8820000  
H 13.1380000   14.8610000   20.1480000  
C 15.6490000   18.7500000   21.1480000  
C 16.8970000   18.8590000   21.8110000  
C 17.9510000   19.5310000   21.3080000  
C 17.9470000   20.1890000   20.0590000  
C 16.7330000   20.0860000   19.2810000  
C 15.5750000   19.4140000   19.8610000  
C 17.3720000   18.3530000   23.0760000  
C 18.6360000   18.7170000   23.2690000  
N 19.0770000   19.5000000   22.1410000  
O 19.0850000   17.5730000   25.3490000  
C 19.5010000   18.5160000   24.4460000  
O 20.5620000   19.0000000   24.6130000  
O 16.6570000   20.5820000   18.0080000  
O 14.3920000   19.3950000   19.1800000  
H 16.7850000   17.7150000   23.7300000  
H 18.2300000   17.2550000   24.9150000  
H 20.0330000   19.8240000   21.9530000  
H 17.5180000   20.9870000   17.8010000  
H 14.4780000   20.0820000   18.4830000  
C 19.2000000   20.8970000   19.5140000  
C 20.4790000   20.2280000   19.4300000  
C 21.6450000   20.8690000   19.0630000  
C 21.6480000   22.2570000   18.7040000  
C 20.3550000   22.8980000   18.7060000  
C 19.1370000   22.2470000   19.0440000  
C 20.8560000   18.8150000   19.7000000  
C 22.2460000   18.6970000   19.4690000  
N 22.7140000   19.9960000   19.0780000  
O 22.4880000   16.3630000   19.8730000  
C 23.0890000   17.5110000   19.5330000  
O 24.2760000   17.5070000   19.3140000  
O 20.2820000   24.2070000   18.3410000  
O 18.0340000   23.0310000   18.9540000  
H 20.2370000   18.0110000   20.1140000  
H 21.6230000   16.6880000   20.2120000  
H 23.6970000   20.2340000   18.8530000  
H 21.0970000   24.4510000   17.8890000  
H 18.3390000   23.8130000   18.6120000  
H 22.5660000   22.8070000   18.4920000  
