76
010 
C  9.2410000   20.6360000   25.2670000  
C  9.1360000   19.5020000   26.2100000  
C 10.0710000   18.4900000   26.2410000  
C 11.0700000   18.4490000   25.3060000  
C 11.1180000   19.4390000   24.2660000  
C 10.2420000   20.5030000   24.2010000  
C 10.2320000   17.4350000   27.1160000  
C 11.4250000   16.8420000   26.6900000  
N 11.8800000   17.4260000   25.5650000  
O 11.6370000   15.3150000   28.5720000  
C 12.2110000   15.7910000   27.4090000  
O 13.2830000   15.3580000   27.0650000  
O 10.4350000   21.5150000   23.3600000  
O  8.4480000   21.5610000   25.3300000  
H  8.3570000   19.6410000   26.9590000  
H  9.7680000   17.3810000   28.0720000  
H 10.8030000   15.7100000   28.5560000  
H 11.3030000   21.3520000   22.9300000  
C 12.2510000   19.3300000   23.3490000  
C 12.4870000   18.1310000   22.6260000  
C 13.6540000   17.8000000   22.0530000  
C 14.8090000   18.5580000   22.2120000  
C 14.6680000   19.7630000   22.8840000  
C 13.4090000   20.1440000   23.4810000  
C 11.5300000   17.0420000   22.3490000  
C 12.3140000   15.9590000   21.8860000  
N 13.6510000   16.4460000   21.6790000  
O 10.5610000   14.3550000   21.9110000  
C 11.8830000   14.5660000   21.6340000  
O 12.5780000   13.6680000   21.2260000  
O 15.6860000   20.7060000   22.9810000  
O 13.3310000   21.1280000   24.3640000  
H 10.5120000   17.0510000   22.8000000  
H 10.2200000   15.1470000   22.2970000  
H 14.4270000   15.9070000   21.3790000  
H 16.4850000   20.3440000   22.4840000  
H 14.2030000   21.2780000   24.7320000  
C 16.1230000   18.0400000   21.6480000  
C 16.3110000   17.8250000   20.2890000  
C 17.5170000   17.6300000   19.8010000  
C 18.6930000   17.3970000   20.5510000  
C 18.6050000   17.5940000   21.9000000  
C 17.2970000   17.9950000   22.4280000  
C 15.3840000   17.8420000   19.1930000  
C 16.1950000   17.8690000   18.0530000  
N 17.4540000   17.4310000   18.4260000  
O 14.6670000   18.8340000   16.6050000  
C 15.8410000   18.1850000   16.6360000  
O 16.5850000   17.9560000   15.6530000  
O 19.6380000   17.6000000   22.7760000  
O 17.2470000   18.3200000   23.7720000  
H 14.2420000   17.9380000   19.2820000  
H 14.5090000   19.0250000   17.5600000  
H 18.2400000   17.2300000   17.8090000  
H 20.4850000   17.6680000   22.2250000  
H 18.1000000   18.2330000   24.1200000  
C 20.0310000   17.2720000   19.8860000  
C 20.4930000   18.3410000   19.0900000  
C 21.7270000   18.2430000   18.4600000  
C 22.6540000   17.2590000   18.7160000  
C 22.2590000   16.2620000   19.5760000  
C 20.9580000   16.2340000   20.0920000  
C 19.8450000   19.5770000   18.6910000  
C 20.8610000   20.1840000   17.8590000  
N 21.9300000   19.3260000   17.6760000  
O 19.6160000   22.1390000   17.4950000  
C 20.7640000   21.5570000   17.2110000  
O 21.6240000   22.0400000   16.4820000  
O 23.0880000   15.1810000   19.7900000  
O 20.6650000   15.0710000   20.8240000  
H 18.9820000   20.0580000   19.0880000  
H 19.1100000   21.3110000   17.7040000  
H 22.7540000   19.4920000   17.1130000  
H 23.6600000   15.1030000   19.0370000  
H 21.5390000   14.7210000   21.1670000  
H 23.6350000   17.2870000   18.2260000  
