76
010 
C 10.4910000   13.4180000   23.9290000  
C 10.6770000   12.0190000   23.4590000  
C 11.7810000   11.8040000   22.6290000  
C 12.8090000   12.7610000   22.4180000  
C 12.7310000   14.0770000   22.9860000  
C 11.5250000   14.4390000   23.5520000  
C 12.2440000   10.5840000   22.1140000  
C 13.4470000   10.8970000   21.5620000  
N 13.7870000   12.2350000   21.7060000  
O 13.8390000    8.7650000   20.6330000  
C 14.3360000   10.0080000   20.8920000  
O 15.4760000   10.2080000   20.4700000  
O 11.2930000   15.7050000   24.0460000  
O  9.5400000   13.7220000   24.6680000  
H  9.9370000   11.2420000   23.5930000  
H 11.6780000    9.5930000   22.0580000  
H 12.9440000    8.6440000   21.0710000  
H 12.1980000   16.0580000   24.3390000  
C 13.8300000   15.0350000   22.7750000  
C 13.9280000   15.5470000   21.5010000  
C 14.7920000   16.5670000   21.2500000  
C 15.5790000   17.2220000   22.2170000  
C 15.4200000   16.7660000   23.5430000  
C 14.5410000   15.6750000   23.7880000  
C 13.2400000   15.2520000   20.2860000  
C 13.8120000   16.0930000   19.3170000  
N 14.7680000   16.9590000   19.9280000  
O 12.4910000   15.1650000   17.5030000  
C 13.4860000   16.0310000   17.8920000  
O 13.9960000   16.7940000   17.0570000  
O 16.0310000   17.3600000   24.5550000  
O 14.2910000   15.2960000   25.1060000  
H 12.4290000   14.5670000   20.2310000  
H 12.3870000   14.5350000   18.2210000  
H 15.2400000   17.7270000   19.5170000  
H 16.6350000   18.0100000   24.1850000  
H 14.6570000   15.9820000   25.7620000  
C 16.3840000   18.4580000   21.9770000  
C 15.9020000   19.6720000   21.3720000  
C 16.6650000   20.7780000   21.1550000  
C 18.0340000   20.8540000   21.4360000  
C 18.5940000   19.6660000   21.9920000  
C 17.7690000   18.5230000   22.2680000  
C 14.5930000   19.9830000   20.9260000  
C 14.6130000   21.3200000   20.5980000  
N 15.9330000   21.7850000   20.5880000  
O 12.1910000   21.5650000   20.3200000  
C 13.4290000   22.1040000   20.0410000  
O 13.5400000   23.2000000   19.5170000  
O 19.9660000   19.7110000   22.3800000  
O 18.3140000   17.4930000   22.9670000  
H 13.6870000   19.3320000   20.7920000  
H 12.2910000   20.7560000   20.8790000  
H 16.2610000   22.7050000   20.3300000  
H 20.4740000   20.5030000   22.1030000  
H 19.2560000   17.5860000   23.1690000  
C 18.8330000   21.9980000   21.0930000  
C 18.8800000   23.1280000   21.9180000  
C 19.5360000   24.2740000   21.5870000  
C 20.1620000   24.4850000   20.3460000  
C 20.1690000   23.3220000   19.5020000  
C 19.5340000   22.1180000   19.8300000  
C 18.3160000   23.2460000   23.2540000  
C 18.6850000   24.5300000   23.6870000  
N 19.4230000   25.1560000   22.7060000  
O 17.5900000   24.2520000   25.7830000  
C 18.2040000   25.1110000   24.9890000  
O 18.3970000   26.2940000   25.2600000  
O 20.8270000   23.3530000   18.2800000  
O 19.7030000   20.9640000   19.0960000  
H 17.5540000   22.6720000   23.7530000  
H 17.7350000   23.3720000   25.3480000  
H 19.7460000   26.0930000   22.6690000  
H 20.9700000   24.2870000   17.9640000  
H 20.4550000   21.0930000   18.5720000  
H 20.6270000   25.4260000   19.9910000  
