76
010 
C  8.3670000   16.1290000   22.4910000  
C  8.0470000   16.2650000   23.9380000  
C  8.9360000   16.9070000   24.7930000  
C 10.1950000   17.3250000   24.3640000  
C 10.6320000   17.1110000   23.0150000  
C  9.7400000   16.5670000   22.0870000  
C  8.8730000   17.1560000   26.1950000  
C 10.0830000   17.6740000   26.5200000  
N 10.9100000   17.7850000   25.4430000  
O  9.5000000   18.0530000   28.7650000  
C 10.5440000   18.0450000   27.9180000  
O 11.6020000   18.5690000   28.2320000  
O 10.1430000   16.3300000   20.8050000  
O  7.5450000   15.6390000   21.7070000  
H  7.0630000   15.9680000   24.1760000  
H  7.9860000   17.0410000   26.8270000  
H  8.6830000   17.8250000   28.2330000  
H 11.0620000   16.7050000   20.6960000  
C 11.9690000   17.4600000   22.6770000  
C 13.0870000   16.7730000   23.1050000  
C 14.3740000   16.9830000   22.7010000  
C 14.6940000   17.8920000   21.6740000  
C 13.6000000   18.6540000   21.2920000  
C 12.2590000   18.4170000   21.7530000  
C 13.0960000   15.5850000   23.9320000  
C 14.4520000   15.1980000   23.9800000  
N 15.2620000   16.0490000   23.1950000  
O 14.1310000   13.3830000   25.5590000  
C 15.0590000   14.1410000   24.8920000  
O 16.2680000   13.9500000   25.0760000  
O 13.8460000   19.7370000   20.4700000  
O 11.2520000   19.1680000   21.1050000  
H 12.3480000   15.2930000   24.6140000  
H 13.2960000   13.7220000   25.1730000  
H 16.2670000   15.9600000   23.0290000  
H 14.8650000   19.7140000   20.4290000  
H 11.6030000   20.0240000   20.8090000  
C 16.0920000   18.2230000   21.3140000  
C 16.7650000   17.6250000   20.2450000  
C 17.9970000   18.0450000   19.9170000  
C 18.7330000   19.0180000   20.6020000  
C 18.0740000   19.6880000   21.6540000  
C 16.7670000   19.2410000   22.0060000  
C 16.4500000   16.6040000   19.2450000  
C 17.5570000   16.3630000   18.4360000  
N 18.4820000   17.3190000   18.8700000  
O 16.6220000   14.6510000   17.1220000  
C 17.7680000   15.2920000   17.4320000  
O 18.8460000   14.9870000   16.8760000  
O 18.7860000   20.6570000   22.3090000  
O 16.1380000   19.9880000   22.9260000  
H 15.5660000   15.9310000   19.3210000  
H 15.9830000   15.1420000   17.6010000  
H 19.3240000   17.5130000   18.4260000  
H 19.7350000   20.6790000   21.9740000  
H 16.7180000   20.7230000   23.2330000  
C 20.1170000   19.3680000   20.1640000  
C 20.3340000   20.7130000   19.6260000  
C 21.6300000   20.9870000   19.2100000  
C 22.6680000   20.1190000   19.2620000  
C 22.4800000   18.9110000   19.9610000  
C 21.2060000   18.4620000   20.3530000  
C 19.4940000   21.8820000   19.3630000  
C 20.2800000   22.6990000   18.5890000  
N 21.5900000   22.2240000   18.6020000  
O 18.7140000   24.4320000   18.4080000  
C 19.9760000   24.0360000   18.0650000  
O 20.7460000   24.7960000   17.5520000  
O 23.4990000   18.0450000   20.0160000  
O 21.0970000   17.2660000   20.9060000  
H 18.4470000   21.8800000   19.2840000  
H 18.2240000   23.7000000   18.8660000  
H 22.4370000   22.7480000   18.4630000  
H 24.2440000   18.4850000   19.5860000  
H 22.0030000   16.9410000   21.0740000  
H 23.6310000   20.4270000   18.8930000  
