76
010 
C 16.7070000   22.3190000   27.6560000  
C 16.3740000   21.5130000   28.8520000  
C 16.0590000   20.1880000   28.6990000  
C 15.9510000   19.6100000   27.4020000  
C 16.3410000   20.3080000   26.2370000  
C 16.6300000   21.6550000   26.3720000  
C 15.7110000   19.1350000   29.5630000  
C 15.4770000   18.0460000   28.7990000  
N 15.5910000   18.3720000   27.4570000  
O 14.8880000   16.7620000   30.8240000  
C 15.0980000   16.7450000   29.4090000  
O 14.9710000   15.7040000   28.7490000  
O 17.0290000   22.4390000   25.3370000  
O 16.9310000   23.5060000   27.7750000  
H 16.5730000   22.0430000   29.7810000  
H 15.8690000   19.2200000   30.6640000  
H 14.7670000   17.7520000   30.9870000  
H 17.3110000   21.8500000   24.5460000  
C 16.1420000   19.7020000   24.9510000  
C 14.8710000   19.3320000   24.4630000  
C 14.6720000   18.5080000   23.4120000  
C 15.7240000   18.1470000   22.5550000  
C 17.0120000   18.5080000   23.0100000  
C 17.2330000   19.2920000   24.2020000  
C 13.5530000   19.6350000   24.9700000  
C 12.6700000   18.9950000   24.0360000  
N 13.3670000   18.3610000   23.0230000  
O 10.8370000   20.0590000   25.0030000  
C 11.2180000   19.1710000   24.0040000  
O 10.4260000   18.5730000   23.3340000  
O 18.1290000   18.0930000   22.2570000  
O 18.4890000   19.6650000   24.5820000  
H 13.3760000   20.0430000   25.9810000  
H 11.7020000   20.3680000   25.3960000  
H 12.9890000   17.8750000   22.2510000  
H 17.6510000   17.5370000   21.6260000  
H 19.1510000   19.4140000   23.9650000  
C 15.5100000   17.4260000   21.2970000  
C 15.1510000   18.1420000   20.1270000  
C 15.1230000   17.5250000   18.9390000  
C 15.4760000   16.1910000   18.7240000  
C 15.8070000   15.4230000   19.8930000  
C 15.8870000   16.0320000   21.1660000  
C 14.7740000   19.5080000   19.8530000  
C 14.5560000   19.6260000   18.5020000  
N 14.7400000   18.3810000   17.8860000  
O 13.8050000   21.8340000   18.6290000  
C 14.1470000   20.8510000   17.7760000  
O 14.0230000   20.9470000   16.5950000  
O 15.9050000   14.0460000   19.9760000  
O 16.2900000   15.3670000   22.3090000  
H 14.5990000   20.2300000   20.6180000  
H 13.7530000   21.4340000   19.5570000  
H 14.6230000   18.1410000   16.9180000  
H 15.8970000   13.6710000   19.0770000  
H 15.7640000   14.5090000   22.2590000  
C 15.4740000   15.4940000   17.3840000  
C 16.3940000   16.0110000   16.3940000  
C 16.3540000   15.4200000   15.1250000  
C 15.4370000   14.3530000   14.7810000  
C 14.5310000   13.9060000   15.7500000  
C 14.5030000   14.5320000   17.0040000  
C 17.2790000   17.0820000   16.2880000  
C 17.8480000   17.0850000   15.0260000  
N 17.2750000   16.0260000   14.3050000  
O 19.3320000   18.9570000   15.4410000  
C 18.9400000   17.9710000   14.6080000  
O 19.4680000   17.8990000   13.4640000  
O 13.6800000   12.8920000   15.4260000  
O 13.5670000   14.0340000   17.9090000  
H 17.4550000   17.7980000   17.0650000  
H 18.7510000   18.8420000   16.2190000  
H 17.2800000   16.1150000   13.2980000  
H 13.1740000   12.7010000   16.2740000  
H 13.7740000   14.4040000   18.7150000  
H 15.3940000   13.9150000   13.7680000  
