76
010 
C 10.0590000   15.3110000   25.7270000  
C  8.7810000   15.6750000   25.1370000  
C  8.7650000   16.3380000   23.9410000  
C  9.9150000   16.6990000   23.2680000  
C 11.1950000   16.4030000   23.8210000  
C 11.3030000   15.7040000   25.0080000  
C  7.6480000   16.8190000   23.1970000  
C  8.2550000   17.4700000   22.1310000  
N  9.6500000   17.4820000   22.2780000  
O  6.2750000   18.2640000   21.1880000  
C  7.6410000   18.1860000   21.0100000  
O  8.1950000   18.5800000   20.0000000  
O 12.5070000   15.4990000   25.6490000  
O 10.2180000   14.7040000   26.7530000  
H  7.9120000   15.3970000   25.6900000  
H  6.6370000   16.6160000   23.4520000  
H  6.1300000   17.8770000   22.0260000  
H 12.2650000   15.3710000   26.6320000  
C 12.3730000   16.9050000   23.1840000  
C 13.1570000   17.9450000   23.7920000  
C 14.1960000   18.4310000   23.2060000  
C 14.7190000   17.8990000   21.9680000  
C 14.0570000   16.7820000   21.3870000  
C 12.8870000   16.3160000   21.9770000  
C 13.0520000   18.5880000   25.1250000  
C 14.1900000   19.3870000   25.1340000  
N 14.9170000   19.2870000   23.9440000  
O 13.7330000   20.2270000   27.3310000  
C 14.5750000   20.3370000   26.2800000  
O 15.5450000   21.0730000   26.2550000  
O 14.5620000   16.1500000   20.2980000  
O 12.1700000   15.3130000   21.3130000  
H 12.2490000   18.5950000   25.8260000  
H 13.0900000   19.5340000   27.1420000  
H 15.6570000   19.9130000   23.5660000  
H 15.5330000   16.1730000   20.3110000  
H 12.7810000   14.9710000   20.7080000  
C 16.0110000   18.4830000   21.4230000  
C 17.1410000   17.6610000   21.3070000  
C 18.3270000   18.2310000   21.0340000  
C 18.4470000   19.5760000   20.6860000  
C 17.2990000   20.3800000   20.6500000  
C 16.0440000   19.8480000   21.0100000  
C 17.3660000   16.3180000   21.6910000  
C 18.7490000   16.1020000   21.4650000  
N 19.3290000   17.3500000   21.2200000  
O 18.6150000   13.8430000   22.0190000  
C 19.4220000   14.8360000   21.6900000  
O 20.6000000   14.6520000   21.4970000  
O 17.4050000   21.7020000   20.4070000  
O 14.9130000   20.5500000   21.0080000  
H 16.5890000   15.5920000   21.9030000  
H 17.7460000   14.1410000   22.0380000  
H 20.3360000   17.4870000   21.1010000  
H 18.2800000   21.7710000   20.0160000  
H 15.0690000   21.3160000   20.4640000  
C 19.8180000   20.0630000   20.1690000  
C 20.3610000   19.5890000   18.9380000  
C 21.5560000   20.0790000   18.4500000  
C 22.2620000   21.0870000   19.1040000  
C 21.8610000   21.4760000   20.3550000  
C 20.6170000   21.0090000   20.8860000  
C 19.9510000   18.5820000   18.0330000  
C 20.8490000   18.6460000   16.9520000  
N 21.8080000   19.5940000   17.2010000  
O 19.4620000   17.2780000   15.6230000  
C 20.6410000   17.9460000   15.6870000  
O 21.4500000   18.1210000   14.7470000  
O 22.5940000   22.3270000   21.1310000  
O 20.2040000   21.4480000   22.1240000  
H 18.9680000   18.0980000   18.1310000  
H 19.1310000   17.3200000   16.5520000  
H 22.5790000   19.8490000   16.7000000  
H 23.5290000   22.1730000   20.9270000  
H 20.7840000   22.2360000   22.5080000  
H 23.1820000   21.3940000   18.7290000  
