76
010 
C 17.1300000   17.5180000   28.8370000  
C 18.4790000   17.9870000   29.0460000  
C 19.2250000   18.5200000   27.9420000  
C 18.7160000   18.4700000   26.6750000  
C 17.3670000   18.0350000   26.4530000  
C 16.5800000   17.5450000   27.4830000  
C 20.5620000   18.9500000   27.8330000  
C 20.7860000   19.1080000   26.4450000  
N 19.6210000   18.8620000   25.7460000  
O 22.9470000   19.9040000   26.7610000  
C 22.0180000   19.5560000   25.8410000  
O 22.2600000   19.6430000   24.6850000  
O 15.3180000   17.0180000   27.3190000  
O 16.4370000   17.1480000   29.7440000  
H 18.9390000   17.9800000   30.0400000  
H 21.3200000   19.0680000   28.6400000  
H 22.4800000   19.7240000   27.6060000  
H 14.9000000   17.5200000   26.5690000  
C 16.9030000   18.0800000   25.0720000  
C 17.1700000   17.0140000   24.2250000  
C 16.7310000   16.9550000   23.0240000  
C 16.0160000   17.9950000   22.3080000  
C 15.8190000   19.1890000   23.1110000  
C 16.1520000   19.1430000   24.5100000  
C 17.7250000   15.6780000   24.5410000  
C 17.5980000   14.9710000   23.3400000  
N 17.0250000   15.7810000   22.3950000  
O 18.5620000   12.9750000   24.1710000  
C 17.9710000   13.5560000   23.1250000  
O 17.7970000   12.9580000   22.0910000  
O 15.0770000   20.2570000   22.5810000  
O 15.9500000   20.3120000   25.2190000  
H 18.3680000   15.4270000   25.3700000  
H 18.3640000   13.5850000   24.8670000  
H 16.8240000   15.5460000   21.4020000  
H 15.4020000   20.4050000   21.6740000  
H 15.7780000   20.9790000   24.5120000  
C 15.4370000   17.8010000   20.9400000  
C 14.0590000   17.6380000   20.6660000  
C 13.5220000   17.6370000   19.4550000  
C 14.2860000   17.8240000   18.2580000  
C 15.7030000   17.9340000   18.4590000  
C 16.2410000   18.0790000   19.7990000  
C 12.9050000   17.6310000   21.6300000  
C 11.7180000   17.6930000   20.8270000  
N 12.1280000   17.7010000   19.5240000  
O 10.2610000   17.8520000   22.7120000  
C 10.3470000   17.7600000   21.3660000  
O  9.2580000   17.7830000   20.7790000  
O 16.5500000   18.1150000   17.3630000  
O 17.5420000   18.3000000   19.9260000  
H 12.9620000   17.6420000   22.6800000  
H 11.1780000   17.9840000   23.0110000  
H 11.5270000   17.9510000   18.7720000  
H 15.9940000   18.2830000   16.6360000  
H 17.9000000   18.5420000   19.0210000  
C 13.6900000   18.0150000   16.8900000  
C 12.8250000   19.0940000   16.7190000  
C 12.3000000   19.3120000   15.4630000  
C 12.4570000   18.3970000   14.3940000  
C 13.2370000   17.2770000   14.5870000  
C 13.8750000   17.0730000   15.8440000  
C 12.4310000   20.2370000   17.5540000  
C 11.6810000   21.0490000   16.7780000  
N 11.6400000   20.5170000   15.5360000  
O 11.3440000   22.6150000   18.5370000  
C 11.2270000   22.4160000   17.1860000  
O 10.8820000   23.3130000   16.4060000  
O 13.4730000   16.4370000   13.5420000  
O 14.5910000   15.9270000   16.0360000  
H 12.7530000   20.2800000   18.5630000  
H 11.9020000   21.9150000   18.8270000  
H 11.0830000   20.9350000   14.8040000  
H 12.8050000   16.6250000   12.8460000  
H 14.5120000   15.3240000   15.2570000  
H 11.9680000   18.5270000   13.4690000  
