76
010 
C 19.6570000   14.0720000   26.0940000  
C 19.7860000   14.7240000   27.4340000  
C 19.0460000   15.8150000   27.7550000  
C 18.2480000   16.4480000   26.8020000  
C 18.0610000   15.8550000   25.4800000  
C 18.8300000   14.7490000   25.0970000  
C 18.9440000   16.6300000   28.8930000  
C 18.1260000   17.7320000   28.5600000  
N 17.7040000   17.5850000   27.2360000  
O 18.2500000   18.7280000   30.6350000  
C 17.7280000   18.8170000   29.3840000  
O 16.9610000   19.7210000   29.0650000  
O 18.6920000   14.1160000   23.9060000  
O 20.3590000   13.1820000   25.7700000  
H 20.4610000   14.2120000   28.1350000  
H 19.3200000   16.4780000   29.8930000  
H 18.6700000   17.8640000   30.6200000  
H 17.8210000   14.3720000   23.5020000  
C 17.2940000   16.5980000   24.4670000  
C 17.7870000   17.8620000   23.9360000  
C 16.9810000   18.5190000   23.0360000  
C 15.8270000   17.9250000   22.4350000  
C 15.3360000   16.7000000   22.9700000  
C 15.9960000   16.1550000   24.1220000  
C 19.0600000   18.5360000   24.0410000  
C 18.8940000   19.5680000   23.0700000  
N 17.5980000   19.5960000   22.5230000  
O 21.0450000   20.4600000   23.4940000  
C 19.9340000   20.6290000   22.8470000  
O 19.6950000   21.5420000   22.0600000  
O 14.3040000   15.9470000   22.4660000  
O 15.5310000   15.1060000   24.7610000  
H 19.9320000   18.2150000   24.5880000  
H 20.8740000   19.6960000   24.0530000  
H 17.1810000   20.1940000   21.8130000  
H 14.1390000   16.3210000   21.5740000  
H 14.5750000   15.1460000   24.8790000  
C 15.3170000   18.5250000   21.1620000  
C 15.3030000   17.7730000   19.9670000  
C 14.5790000   18.1910000   18.8920000  
C 13.8350000   19.3680000   18.7960000  
C 13.8100000   20.1160000   20.0240000  
C 14.5520000   19.7390000   21.1600000  
C 15.9390000   16.5860000   19.5010000  
C 15.4910000   16.3260000   18.1990000  
N 14.6100000   17.3820000   17.8260000  
O 16.8810000   14.4930000   17.8100000  
C 15.9200000   15.2990000   17.2460000  
O 15.5060000   15.0950000   16.1460000  
O 13.0360000   21.2130000   20.1000000  
O 14.1970000   20.1830000   22.3900000  
H 16.6510000   15.9790000   20.0700000  
H 16.8780000   14.6610000   18.7820000  
H 13.9360000   17.4550000   17.0800000  
H 12.3320000   21.0590000   19.4440000  
H 13.4980000   20.8820000   22.3100000  
C 13.0890000   19.7700000   17.6110000  
C 11.5900000   19.8330000   17.6390000  
C 10.8920000   20.2320000   16.5570000  
C 11.5330000   20.4640000   15.2890000  
C 12.9560000   20.3880000   15.2260000  
C 13.7070000   19.9760000   16.3240000  
C 10.6420000   19.6020000   18.6780000  
C  9.3560000   19.8990000   18.1580000  
N  9.5780000   20.1040000   16.7290000  
O  8.0820000   19.7800000   20.1840000  
C  8.0450000   19.9390000   18.8620000  
O  7.0130000   20.0460000   18.2620000  
O 13.6050000   20.8390000   14.0740000  
O 15.0560000   19.9200000   16.2140000  
H 10.9470000   19.3100000   19.6310000  
H  9.0350000   19.6480000   20.3620000  
H  8.8250000   20.3890000   16.0590000  
H 14.5710000   20.8280000   14.2390000  
H 15.4730000   19.6760000   17.0400000  
H 10.9870000   20.8450000   14.3980000  
