76
010 
C  9.8710000   13.5490000   23.7630000  
C 10.3930000   12.1780000   23.5210000  
C 11.6570000   12.0450000   22.9330000  
C 12.4460000   13.1180000   22.5890000  
C 12.0050000   14.4420000   22.8420000  
C 10.8030000   14.6840000   23.4390000  
C 12.4500000   10.9320000   22.6540000  
C 13.6850000   11.3870000   22.1310000  
N 13.6330000   12.7730000   22.0890000  
O 14.7230000    9.2720000   21.7720000  
C 14.9010000   10.6000000   21.6740000  
O 15.9390000   11.1760000   21.2790000  
O 10.4060000   15.8980000   23.7440000  
O  8.7000000   13.7700000   24.1500000  
H  9.8040000   11.3650000   23.8530000  
H 12.1230000    9.8700000   22.7360000  
H 13.7710000    9.3340000   22.0990000  
H  9.7530000   15.8470000   24.4780000  
C 12.9130000   15.5080000   22.5230000  
C 13.0730000   15.9800000   21.2020000  
C 13.9060000   17.0320000   21.0140000  
C 14.7740000   17.6560000   21.9330000  
C 14.5030000   17.3020000   23.3020000  
C 13.6460000   16.2670000   23.5630000  
C 12.6220000   15.5300000   19.9490000  
C 13.1850000   16.3220000   18.9800000  
N 14.0150000   17.2620000   19.6820000  
O 12.1610000   15.2360000   17.1600000  
C 13.0260000   16.1930000   17.5190000  
O 13.5180000   16.9230000   16.7060000  
O 15.2410000   17.9740000   24.2670000  
O 13.6430000   15.7180000   24.8160000  
H 11.8970000   14.7530000   19.6930000  
H 11.7600000   14.9880000   17.9860000  
H 14.5970000   18.0180000   19.3190000  
H 15.8530000   18.6070000   23.8870000  
H 14.6510000   15.5560000   24.8840000  
C 15.8530000   18.6050000   21.4450000  
C 15.6520000   19.9410000   21.8130000  
C 16.5710000   20.8870000   21.4890000  
C 17.6720000   20.6620000   20.6230000  
C 17.8210000   19.3510000   20.1430000  
C 16.9620000   18.3170000   20.5970000  
C 14.7050000   20.6120000   22.6500000  
C 15.1360000   21.9080000   22.8690000  
N 16.1790000   22.1070000   21.9720000  
O 13.4880000   22.4560000   24.5180000  
C 14.5680000   22.8800000   23.8020000  
O 15.1010000   23.9570000   24.0180000  
O 18.9100000   18.9270000   19.3990000  
O 17.0990000   16.9870000   20.2780000  
H 13.8350000   20.0690000   23.1030000  
H 13.3990000   21.5460000   24.1810000  
H 16.6660000   22.9900000   21.9030000  
H 19.5190000   19.7490000   19.3700000  
H 17.8830000   16.9580000   19.6880000  
C 18.7200000   21.6820000   20.3560000  
C 19.5390000   22.2240000   21.3690000  
C 20.4900000   23.1850000   21.0870000  
C 20.7910000   23.5960000   19.8170000  
C 20.0160000   23.0720000   18.7780000  
C 19.0050000   22.1070000   19.0290000  
C 19.4410000   22.1320000   22.8200000  
C 20.4150000   23.0260000   23.3120000  
N 21.0790000   23.6060000   22.2450000  
O 19.9540000   22.5060000   25.5260000  
C 20.7160000   23.2280000   24.7110000  
O 21.5880000   23.9890000   25.0790000  
O 20.1780000   23.5860000   17.5270000  
O 18.2850000   21.6650000   18.0110000  
H 18.8100000   21.4530000   23.3690000  
H 19.3000000   22.1170000   24.8970000  
H 21.7880000   24.3280000   22.3620000  
H 21.1170000   23.9270000   17.4600000  
H 18.5470000   22.1680000   17.2060000  
H 21.4820000   24.3740000   19.6200000  
