76
010 
C 20.2190000   15.1260000   27.0140000  
C 19.7560000   15.9020000   28.1720000  
C 18.6560000   16.7610000   28.1450000  
C 17.9260000   17.0100000   26.9890000  
C 18.3590000   16.3780000   25.7690000  
C 19.4100000   15.4190000   25.7820000  
C 18.0040000   17.6110000   29.1110000  
C 16.9590000   18.2270000   28.4910000  
N 16.9000000   17.8450000   27.1290000  
O 16.2100000   19.5300000   30.4440000  
C 16.0810000   19.2070000   29.1290000  
O 15.1730000   19.7850000   28.5950000  
O 19.8630000   14.8510000   24.6280000  
O 21.2800000   14.5160000   26.9950000  
H 20.4100000   15.9090000   29.0540000  
H 18.3610000   17.8210000   30.1200000  
H 16.9480000   18.9880000   30.7840000  
H 19.6910000   15.4140000   23.8290000  
C 17.6950000   16.6310000   24.4660000  
C 17.7660000   17.9400000   23.9790000  
C 17.1460000   18.2570000   22.8200000  
C 16.3330000   17.4370000   22.0430000  
C 16.2390000   16.1210000   22.5930000  
C 16.8560000   15.6940000   23.7930000  
C 18.4160000   19.0780000   24.4320000  
C 18.1310000   20.1190000   23.5270000  
N 17.3850000   19.5940000   22.5160000  
O 18.9630000   21.8690000   24.9180000  
C 18.2700000   21.5710000   23.7880000  
O 17.9080000   22.4760000   23.0610000  
O 15.4460000   15.2470000   22.0450000  
O 16.9060000   14.3460000   24.0920000  
H 18.9860000   19.1830000   25.2990000  
H 19.1870000   21.0130000   25.3000000  
H 16.9780000   20.0640000   21.7700000  
H 14.8200000   15.5640000   21.3620000  
H 16.5100000   14.0940000   23.2490000  
C 15.5520000   17.9890000   20.8290000  
C 15.6920000   17.5800000   19.5320000  
C 14.9040000   18.0930000   18.5420000  
C 13.8800000   19.0850000   18.7360000  
C 13.7260000   19.4430000   20.0810000  
C 14.5580000   18.9770000   21.1280000  
C 16.4280000   16.5660000   18.9500000  
C 16.0710000   16.5350000   17.5720000  
N 15.0570000   17.4760000   17.3330000  
O 17.6720000   14.7760000   17.0270000  
C 16.7040000   15.5970000   16.5510000  
O 16.4390000   15.5580000   15.4110000  
O 12.8070000   20.4500000   20.3530000  
O 14.3560000   19.4670000   22.3830000  
H 17.2500000   16.0380000   19.3410000  
H 17.6270000   15.0110000   17.9790000  
H 14.4950000   17.5720000   16.4780000  
H 12.3270000   20.6520000   19.5020000  
H 13.6160000   20.1290000   22.2890000  
C 13.0760000   19.7460000   17.6860000  
C 11.7880000   19.2840000   17.3770000  
C 11.0010000   19.7840000   16.4150000  
C 11.4780000   20.8250000   15.5950000  
C 12.7500000   21.3850000   15.9480000  
C 13.5410000   20.8780000   16.9910000  
C 10.9980000   18.3000000   18.0740000  
C  9.8150000   18.2140000   17.4200000  
N  9.8580000   19.1260000   16.3520000  
O  9.0600000   16.4370000   18.8480000  
C  8.7910000   17.2130000   17.6920000  
O  7.7660000   17.0000000   17.0810000  
O 13.1520000   22.5230000   15.3400000  
O 14.7000000   21.4470000   17.4000000  
H 11.4000000   17.5930000   18.7690000  
H  9.7950000   16.8370000   19.3510000  
H  9.1930000   19.2370000   15.5970000  
H 14.1400000   22.6100000   15.3520000  
H 15.1050000   20.9700000   18.1030000  
H 10.8550000   21.2690000   14.8350000  
