76
011 
C 16.3020000   20.5960000   29.0260000  
C 17.7170000   20.8790000   29.4560000  
C 18.7490000   20.6560000   28.6000000  
C 18.6450000   20.2720000   27.2640000  
C 17.3660000   19.9910000   26.7150000  
C 16.2520000   20.1170000   27.6030000  
C 20.1300000   20.8570000   28.7900000  
C 20.7390000   20.4390000   27.6290000  
N 19.8370000   19.9600000   26.7150000  
O 22.9500000   21.0570000   28.4380000  
C 22.2630000   20.3280000   27.5380000  
O 22.7990000   19.7750000   26.5670000  
O 15.0150000   19.8620000   27.1900000  
O 15.3970000   20.8320000   29.8030000  
H 17.8440000   21.3690000   30.4150000  
H 20.5000000   21.2220000   29.7560000  
H 22.3950000   21.5940000   28.9350000  
H 15.0400000   19.4890000   26.2700000  
C 17.2140000   19.5720000   25.3460000  
C 17.3130000   18.2090000   25.0990000  
C 17.3070000   17.6960000   23.8170000  
C 17.2770000   18.5320000   22.6440000  
C 17.1630000   19.9110000   22.9320000  
C 17.1410000   20.4160000   24.2550000  
C 17.4660000   17.0660000   25.9390000  
C 17.8740000   15.9950000   25.1540000  
N 17.7370000   16.3700000   23.7850000  
O 17.8730000   14.4090000   26.9670000  
C 17.9780000   14.6310000   25.6510000  
O 18.2340000   13.7300000   24.8830000  
O 17.1780000   20.7690000   21.8780000  
O 17.0650000   21.8210000   24.3680000  
H 17.4420000   17.1330000   27.0120000  
H 17.5460000   15.2560000   27.3470000  
H 17.9260000   15.8820000   22.9400000  
H 17.5530000   20.3610000   21.1150000  
H 17.1310000   22.1030000   25.2720000  
C 17.5390000   18.1540000   21.2290000  
C 16.5000000   18.3420000   20.2250000  
C 16.7110000   17.9590000   18.9110000  
C 17.8420000   17.3060000   18.4060000  
C 18.8130000   17.0240000   19.4520000  
C 18.6680000   17.5030000   20.7720000  
C 15.2130000   19.0110000   20.2150000  
C 14.8100000   19.0640000   18.9230000  
N 15.6050000   18.2010000   18.1630000  
O 13.0020000   20.6180000   19.2050000  
C 13.6690000   19.8390000   18.3420000  
O 13.3100000   19.8440000   17.1620000  
O 19.9160000   16.3040000   19.0670000  
O 19.6820000   17.2590000   21.6500000  
H 14.7700000   19.5500000   21.0420000  
H 13.3900000   20.4700000   20.1230000  
H 15.4760000   18.0690000   17.1880000  
H 19.9120000   16.1970000   18.1190000  
H 19.5420000   17.7320000   22.4570000  
C 17.9670000   16.7450000   16.9820000  
C 17.8030000   17.6820000   15.9340000  
C 17.7580000   17.2970000   14.6230000  
C 17.9050000   15.9480000   14.2430000  
C 18.1900000   14.9540000   15.2650000  
C 18.1770000   15.3550000   16.6030000  
C 17.7180000   19.1140000   15.8640000  
C 17.4920000   19.5130000   14.5690000  
N 17.5020000   18.3740000   13.7810000  
O 17.4020000   21.8920000   14.8070000  
C 17.3520000   20.8320000   13.9600000  
O 17.2420000   20.9740000   12.7310000  
O 18.3160000   13.6330000   14.9470000  
O 18.2730000   14.3560000   17.5590000  
H 17.6020000   19.7580000   16.7540000  
H 17.8830000   21.6070000   15.5890000  
H 17.5140000   18.4040000   12.7440000  
H 18.3460000   13.1510000   15.7420000  
H 17.8880000   14.7550000   18.3690000  
H 17.9330000   15.6400000   13.2040000  
