76
011 
C 22.1970000   12.4130000   21.6600000  
C 21.2380000   11.3060000   21.6850000  
C 19.9170000   11.5290000   21.5700000  
C 19.3270000   12.8160000   21.6470000  
C 20.2190000   13.9470000   21.5770000  
C 21.5590000   13.7420000   21.4140000  
C 18.7990000   10.5970000   21.5400000  
C 17.6810000   11.4730000   21.5910000  
N 17.9750000   12.8230000   21.6410000  
O 16.0440000    9.8330000   21.5520000  
C 16.2240000   11.1980000   21.5960000  
O 15.3560000   12.0500000   21.6120000  
O 22.4800000   14.6960000   21.2870000  
O 23.3590000   12.1110000   21.5920000  
H 21.6090000   10.2970000   21.7290000  
H 18.8120000    9.5340000   21.5040000  
H 16.9880000    9.6190000   21.5980000  
H 22.0380000   15.4770000   21.6730000  
C 19.5840000   15.2620000   21.3750000  
C 18.9450000   15.8930000   22.4330000  
C 18.3470000   17.0930000   22.2920000  
C 18.1920000   17.7490000   21.0620000  
C 18.7410000   17.1130000   19.9160000  
C 19.4640000   15.8810000   20.1120000  
C 18.6250000   15.3750000   23.7010000  
C 17.8240000   16.3610000   24.3450000  
N 17.5770000   17.3840000   23.4160000  
O 17.4830000   14.8800000   26.1890000  
C 17.2260000   16.1600000   25.7040000  
O 16.6160000   16.9850000   26.3410000  
O 18.5820000   17.5570000   18.6880000  
O 19.9100000   15.2510000   19.0050000  
H 19.1060000   14.5660000   24.2100000  
H 18.0660000   14.5050000   25.5030000  
H 16.9620000   18.1680000   23.5710000  
H 17.8310000   18.2230000   18.6700000  
H 19.6490000   15.7390000   18.1670000  
C 17.3570000   19.0150000   20.9780000  
C 17.7970000   20.1000000   21.7640000  
C 17.1420000   21.2610000   21.7300000  
C 16.0560000   21.5020000   20.8330000  
C 15.7080000   20.4610000   19.9460000  
C 16.3620000   19.2420000   20.0040000  
C 18.8910000   20.2750000   22.6360000  
C 18.7050000   21.5590000   23.2070000  
N 17.5980000   22.1610000   22.5890000  
O 20.6580000   21.5800000   24.3660000  
C 19.6170000   22.2990000   24.0470000  
O 19.4860000   23.4600000   24.3010000  
O 14.6830000   20.6290000   19.0930000  
O 15.9030000   18.2340000   19.2620000  
H 19.7140000   19.5780000   22.8240000  
H 20.5040000   20.7040000   23.9580000  
H 17.1920000   23.0720000   22.8270000  
H 14.0560000   21.3880000   19.3520000  
H 15.2250000   18.5250000   18.6020000  
C 15.1370000   22.6990000   21.1560000  
C 15.6070000   23.9810000   20.8130000  
C 14.7890000   25.0660000   21.0280000  
C 13.5390000   24.9820000   21.6870000  
C 13.1230000   23.7340000   22.1740000  
C 13.8560000   22.5620000   21.8440000  
C 16.8310000   24.4540000   20.2150000  
C 16.7170000   25.8770000   20.2050000  
N 15.4030000   26.2480000   20.6990000  
O 18.9290000   26.1680000   19.5940000  
C 17.7780000   26.7640000   19.9890000  
O 17.7290000   27.9690000   20.1450000  
O 12.0230000   23.6440000   22.9820000  
O 13.5590000   21.3040000   22.3840000  
H 17.6070000   23.9340000   19.8050000  
H 18.6540000   25.3030000   19.3430000  
H 14.9780000   27.1800000   20.7330000  
H 11.8600000   22.7170000   23.1150000  
H 14.1050000   20.6690000   21.9280000  
H 13.0230000   25.8650000   21.8950000  
