76
011 
C 16.4550000   11.0840000   21.3740000  
C 17.1450000   10.4310000   22.5120000  
C 17.7890000   11.2280000   23.4590000  
C 17.6360000   12.6640000   23.5410000  
C 17.0060000   13.3800000   22.4990000  
C 16.4320000   12.5930000   21.4710000  
C 18.6540000   10.8770000   24.5130000  
C 18.8760000   12.0530000   25.2040000  
N 18.3710000   13.1770000   24.5690000  
O 20.4940000   11.0020000   26.6260000  
C 19.9450000   12.1730000   26.2490000  
O 20.3130000   13.1620000   26.7590000  
O 15.8780000   13.2710000   20.4300000  
O 15.9410000   10.4170000   20.4960000  
H 17.1550000    9.3430000   22.6190000  
H 19.1280000    9.9280000   24.6710000  
H 20.0430000   10.2800000   26.2020000  
H 16.2860000   14.1500000   20.5580000  
C 17.0750000   14.8740000   22.4260000  
C 18.2910000   15.4860000   22.0670000  
C 18.3640000   16.8610000   21.9130000  
C 17.2790000   17.7710000   21.9570000  
C 16.0360000   17.1470000   22.2380000  
C 15.9400000   15.7490000   22.5470000  
C 19.5910000   14.8930000   21.8790000  
C 20.4070000   16.0110000   21.6890000  
N 19.6290000   17.2080000   21.6090000  
O 22.3870000   14.7600000   21.2400000  
C 21.8250000   16.0030000   21.4390000  
O 22.5090000   17.0350000   21.3810000  
O 14.9620000   17.9320000   22.2490000  
O 14.7330000   15.1890000   22.8980000  
H 19.8200000   13.8670000   22.2290000  
H 21.6060000   14.2450000   21.4480000  
H 19.8950000   18.0680000   21.2530000  
H 15.2510000   18.8950000   22.0300000  
H 13.9940000   15.8210000   22.9420000  
C 17.4700000   19.2840000   21.9200000  
C 17.6260000   19.9860000   20.6290000  
C 17.8850000   21.3040000   20.5690000  
C 17.8240000   22.1980000   21.6890000  
C 17.5180000   21.5280000   22.9550000  
C 17.3510000   20.1010000   23.0610000  
C 17.7330000   19.5280000   19.2950000  
C 17.9820000   20.5380000   18.4580000  
N 18.0860000   21.7390000   19.2950000  
O 17.7560000   19.3750000   16.4410000  
C 17.8250000   20.5510000   16.9770000  
O 17.7820000   21.5390000   16.2550000  
O 17.2830000   22.3810000   24.0040000  
O 17.0330000   19.5690000   24.2870000  
H 17.4600000   18.5460000   18.9960000  
H 18.0470000   18.7500000   17.1290000  
H 18.2530000   22.6150000   18.9340000  
H 17.5540000   23.2650000   23.7740000  
H 16.9610000   20.2010000   24.9670000  
C 17.7970000   23.6480000   21.6170000  
C 16.8220000   24.3790000   20.9680000  
C 16.8300000   25.7920000   20.9930000  
C 17.7560000   26.5620000   21.6930000  
C 18.7510000   25.8400000   22.3460000  
C 18.7900000   24.3900000   22.2870000  
C 15.6610000   23.9460000   20.2380000  
C 14.9970000   25.1040000   19.8810000  
N 15.7470000   26.2520000   20.3300000  
O 13.0160000   24.2720000   18.8090000  
C 13.6590000   25.3290000   19.2320000  
O 13.1090000   26.4050000   19.2080000  
O 19.6640000   26.4830000   23.1640000  
O 19.8000000   23.7320000   22.9000000  
H 15.3220000   22.9770000   20.0260000  
H 13.6790000   23.5570000   18.9700000  
H 15.4560000   27.2190000   20.1540000  
H 19.3840000   27.3510000   23.2880000  
H 20.5270000   24.3380000   22.8530000  
H 17.6130000   27.6650000   21.7590000  
