76
011 
C 11.2820000   14.7590000   20.0370000  
C 11.4360000   13.4750000   20.7190000  
C 12.5990000   13.2120000   21.3500000  
C 13.7020000   14.0920000   21.4280000  
C 13.5120000   15.4570000   21.0270000  
C 12.3710000   15.6760000   20.2330000  
C 13.0090000   11.9900000   21.8720000  
C 14.3140000   12.2100000   22.2710000  
N 14.7150000   13.5250000   22.0810000  
O 14.9490000    9.9420000   22.8200000  
C 15.2800000   11.2400000   22.8630000  
O 16.2350000   11.6650000   23.4620000  
O 12.1070000   16.8920000   19.6540000  
O 10.2910000   15.0590000   19.3720000  
H 10.6890000   12.7320000   20.5000000  
H 12.5130000   11.1170000   22.0420000  
H 14.0790000    9.8240000   22.3750000  
H 12.8370000   17.3950000   20.0080000  
C 14.4490000   16.5170000   21.3090000  
C 15.7720000   16.3310000   20.8190000  
C 16.7390000   17.2680000   20.9920000  
C 16.4860000   18.5270000   21.6670000  
C 15.1420000   18.7210000   22.1000000  
C 14.1860000   17.6720000   22.0350000  
C 16.4150000   15.3070000   20.0490000  
C 17.7360000   15.7380000   19.7720000  
N 17.9390000   16.9550000   20.4220000  
O 18.2580000   13.8760000   18.3040000  
C 18.6510000   15.0800000   18.7860000  
O 19.6940000   15.6310000   18.4500000  
O 14.8360000   19.9630000   22.6040000  
O 12.8900000   17.9870000   22.4360000  
H 15.9340000   14.4340000   19.5270000  
H 17.4380000   13.6000000   18.6680000  
H 18.7810000   17.5090000   20.3680000  
H 15.7050000   20.4250000   22.6940000  
H 13.0150000   18.8980000   22.7020000  
C 17.6290000   19.3830000   21.9430000  
C 18.4830000   20.0420000   21.0160000  
C 19.6390000   20.6720000   21.4730000  
C 19.9350000   20.8500000   22.8260000  
C 19.0580000   20.3030000   23.7530000  
C 17.9120000   19.5350000   23.3280000  
C 18.5770000   20.0670000   19.5820000  
C 19.8010000   20.7230000   19.2660000  
N 20.3610000   21.1610000   20.4470000  
O 19.4780000   20.7320000   16.8950000  
C 20.2910000   21.1330000   17.9280000  
O 21.2230000   21.8200000   17.7070000  
O 19.2050000   20.4030000   25.0850000  
O 16.9770000   19.2530000   24.2530000  
H 17.8370000   19.8610000   18.8080000  
H 18.9070000   20.0850000   17.2580000  
H 21.1960000   21.7170000   20.5590000  
H 19.8930000   20.9780000   25.3700000  
H 17.3980000   19.3010000   25.1280000  
C 21.2110000   21.4670000   23.2220000  
C 21.2660000   22.8160000   23.4460000  
C 22.4600000   23.5020000   23.5630000  
C 23.7240000   22.8540000   23.4770000  
C 23.7090000   21.4590000   23.3570000  
C 22.4860000   20.7990000   23.2070000  
C 20.1820000   23.7790000   23.5340000  
C 20.7860000   24.9260000   23.9060000  
N 22.1960000   24.8590000   23.8140000  
O 18.7730000   26.0630000   24.6110000  
C 20.1360000   26.1250000   24.5490000  
O 20.6610000   27.1370000   25.0170000  
O 24.9200000   20.8660000   23.2450000  
O 22.4470000   19.4380000   23.0510000  
H 19.1110000   23.5150000   23.6060000  
H 18.5150000   25.4380000   23.9490000  
H 22.8080000   25.6180000   23.9340000  
H 24.6660000   20.0160000   22.8690000  
H 21.4790000   19.2020000   23.1650000  
H 24.6510000   23.3700000   23.6360000  
