76
011 
C 22.2230000   17.3960000   27.2800000  
C 22.0190000   16.0200000   27.7110000  
C 21.3510000   15.0840000   26.8970000  
C 20.6080000   15.4680000   25.8080000  
C 20.6230000   16.9260000   25.4800000  
C 21.4390000   17.8230000   26.1310000  
C 21.1590000   13.6540000   27.0140000  
C 20.4360000   13.2950000   25.9220000  
N 20.0470000   14.4180000   25.2000000  
O 20.1550000   11.0950000   26.6980000  
C 19.9370000   11.9710000   25.6550000  
O 19.3060000   11.6280000   24.7220000  
O 21.5090000   19.0840000   25.8250000  
O 23.0370000   18.1090000   27.9180000  
H 22.6230000   15.7590000   28.5340000  
H 21.5530000   12.9940000   27.7760000  
H 20.2910000   11.7700000   27.3800000  
H 20.6690000   19.2970000   25.4400000  
C 19.6850000   17.3140000   24.3450000  
C 18.2720000   17.1170000   24.4550000  
C 17.4570000   17.5800000   23.4770000  
C 17.8810000   18.2260000   22.3260000  
C 19.2970000   18.3350000   22.1550000  
C 20.1780000   17.9040000   23.1530000  
C 17.4500000   16.3810000   25.4070000  
C 16.1980000   16.3140000   24.8490000  
N 16.1340000   17.1190000   23.6950000  
O 15.3110000   14.8220000   26.5740000  
C 15.0270000   15.6580000   25.5340000  
O 13.8850000   15.8050000   25.1330000  
O 19.8250000   18.8180000   20.9830000  
O 21.5650000   17.9300000   22.9840000  
H 17.7670000   15.8140000   26.2260000  
H 16.2340000   14.9130000   26.5860000  
H 15.2920000   17.3550000   23.2360000  
H 19.1810000   18.6110000   20.2370000  
H 21.8510000   18.0980000   22.1100000  
C 16.9860000   18.7880000   21.3260000  
C 16.6780000   20.1190000   21.1730000  
C 16.0760000   20.5660000   20.0290000  
C 15.6380000   19.7080000   18.9720000  
C 15.9290000   18.3730000   19.1430000  
C 16.6460000   17.9050000   20.2670000  
C 16.9700000   21.3300000   22.0150000  
C 16.5260000   22.3890000   21.2450000  
N 16.0390000   21.9170000   20.0140000  
O 17.2880000   23.9230000   22.8250000  
C 16.6540000   23.7980000   21.6370000  
O 16.3280000   24.7280000   20.9910000  
O 15.5720000   17.4970000   18.1630000  
O 17.1110000   16.5960000   20.3270000  
H 17.3740000   21.3910000   23.0130000  
H 17.7190000   23.0510000   22.9700000  
H 15.5800000   22.4040000   19.2310000  
H 15.1500000   18.0140000   17.4820000  
H 16.7360000   16.1240000   19.5470000  
C 15.0110000   20.1900000   17.7010000  
C 15.7720000   20.8610000   16.7140000  
C 15.1650000   21.3380000   15.5910000  
C 13.7960000   21.2310000   15.3610000  
C 13.0900000   20.4080000   16.2010000  
C 13.6710000   19.8430000   17.3230000  
C 17.1240000   21.3610000   16.7980000  
C 17.2840000   22.1310000   15.6360000  
N 16.1080000   22.0780000   14.8500000  
O 19.4520000   22.8850000   16.1170000  
C 18.4000000   22.9950000   15.3050000  
O 18.3400000   23.7190000   14.3400000  
O 11.7630000   20.3050000   15.9490000  
O 12.8880000   19.1640000   18.2600000  
H 17.8730000   21.2090000   17.5840000  
H 19.2870000   22.1110000   16.7390000  
H 15.9910000   22.4740000   13.8930000  
H 11.6720000   21.0040000   15.2420000  
H 11.9280000   19.3890000   18.1650000  
H 13.3010000   21.6670000   14.5160000  
