76
011 
C 11.6060000   17.3900000   26.2970000  
C 10.5360000   17.4400000   25.3200000  
C 10.9120000   17.6330000   23.9600000  
C 12.2420000   17.7230000   23.4780000  
C 13.2840000   17.6610000   24.4260000  
C 12.9940000   17.4730000   25.7790000  
C 10.1090000   17.6610000   22.7440000  
C 11.0460000   17.9150000   21.7270000  
N 12.3310000   17.9330000   22.1880000  
O  9.2940000   18.4160000   20.1130000  
C 10.6490000   18.3210000   20.3940000  
O 11.5090000   18.4900000   19.5300000  
O 13.9660000   17.3120000   26.7050000  
O 11.2860000   17.3640000   27.4780000  
H  9.5150000   17.2190000   25.7330000  
H  9.0280000   17.4910000   22.6900000  
H  8.9140000   18.2670000   20.9590000  
H 14.7460000   17.0790000   26.1610000  
C 14.6970000   17.7450000   23.9790000  
C 15.0770000   19.0080000   23.4750000  
C 16.2100000   19.1320000   22.7570000  
C 17.0940000   18.0180000   22.4860000  
C 16.7250000   16.7600000   22.9580000  
C 15.5400000   16.6050000   23.7710000  
C 14.4760000   20.3080000   23.5310000  
C 15.2580000   21.1510000   22.6870000  
N 16.3890000   20.3910000   22.2610000  
O 13.5820000   22.7590000   22.7210000  
C 14.8320000   22.4650000   22.2740000  
O 15.4120000   23.2190000   21.5100000  
O 17.5580000   15.6910000   22.7380000  
O 15.1150000   15.3060000   24.0240000  
H 13.5700000   20.5210000   24.0940000  
H 13.3140000   21.9520000   23.1000000  
H 17.1540000   20.7840000   21.7630000  
H 18.4090000   16.1170000   22.7520000  
H 15.7390000   14.6240000   23.7030000  
C 18.2950000   18.1570000   21.5860000  
C 19.2360000   19.1440000   21.8040000  
C 20.2320000   19.3890000   20.8990000  
C 20.4670000   18.5720000   19.7760000  
C 19.5760000   17.4960000   19.5980000  
C 18.4650000   17.3590000   20.3810000  
C 19.5520000   20.0630000   22.9550000  
C 20.7810000   20.6520000   22.6660000  
N 21.1350000   20.3000000   21.3490000  
O 20.9770000   21.7650000   24.7520000  
C 21.6360000   21.4260000   23.5940000  
O 22.8040000   21.6040000   23.5510000  
O 19.6830000   16.7900000   18.4210000  
O 17.5200000   16.4840000   19.9830000  
H 18.9980000   20.1650000   23.8780000  
H 19.9500000   21.7200000   24.6110000  
H 21.9580000   20.5450000   20.8180000  
H 20.5650000   16.6290000   18.0640000  
H 17.0410000   16.2720000   20.8110000  
C 21.6170000   18.7140000   18.8760000  
C 22.7210000   17.9080000   19.1300000  
C 23.8170000   17.9470000   18.3470000  
C 23.9240000   18.8340000   17.2400000  
C 22.8200000   19.6770000   17.0060000  
C 21.6380000   19.6330000   17.8330000  
C 23.0860000   17.0350000   20.1830000  
C 24.3690000   16.5290000   19.9560000  
N 24.7750000   17.0910000   18.7810000  
O 24.6030000   15.3920000   21.9950000  
C 25.2470000   15.7720000   20.8950000  
O 26.4070000   15.5140000   20.6830000  
O 22.7670000   20.3870000   15.8880000  
O 20.6580000   20.5370000   17.6100000  
H 22.6420000   17.0190000   21.1520000  
H 23.6510000   15.5900000   21.8900000  
H 25.7280000   17.0370000   18.4580000  
H 22.0230000   20.9790000   16.0450000  
H 19.8560000   20.2680000   18.0400000  
H 24.7880000   18.8930000   16.5680000  
