76
011 
C 20.0910000   12.3420000   19.2420000  
C 19.3330000   11.1650000   19.8420000  
C 18.1900000   11.2740000   20.5270000  
C 17.6310000   12.5760000   20.7600000  
C 18.2690000   13.7600000   20.1940000  
C 19.4690000   13.6260000   19.4990000  
C 17.3020000   10.3300000   21.1150000  
C 16.3180000   11.1150000   21.7410000  
N 16.5660000   12.4930000   21.5070000  
O 15.1960000    9.2560000   22.6600000  
C 15.2130000   10.5700000   22.5690000  
O 14.3440000   11.2050000   23.1960000  
O 20.0890000   14.6930000   18.9250000  
O 21.1270000   12.2010000   18.6700000  
H 19.7420000   10.1900000   19.6200000  
H 17.5290000    9.2490000   21.2470000  
H 15.9810000    9.0010000   22.0970000  
H 19.5970000   15.5180000   19.1780000  
C 17.7220000   15.0650000   20.4780000  
C 17.8590000   15.5850000   21.7630000  
C 17.7020000   16.8920000   22.0210000  
C 17.3920000   17.8850000   21.1060000  
C 17.1880000   17.3440000   19.7520000  
C 17.3420000   15.9480000   19.4050000  
C 18.5080000   14.9740000   22.9150000  
C 18.6490000   15.9430000   23.8550000  
N 18.1830000   17.1510000   23.2950000  
O 19.7120000   14.6780000   25.5410000  
C 19.1110000   15.8620000   25.2800000  
O 18.9450000   16.7260000   26.1480000  
O 16.7770000   18.2450000   18.7890000  
O 17.1720000   15.5520000   18.1300000  
H 18.5730000   13.9070000   23.1520000  
H 19.5830000   14.2080000   24.6980000  
H 18.0480000   17.9850000   23.8360000  
H 17.1090000   19.0850000   19.1010000  
H 16.5110000   16.0570000   17.7230000  
C 17.1190000   19.3080000   21.4190000  
C 18.1400000   20.1310000   21.8160000  
C 17.9120000   21.3630000   22.3930000  
C 16.6210000   21.9190000   22.5760000  
C 15.5900000   21.1300000   22.0380000  
C 15.8440000   19.8530000   21.4710000  
C 19.5740000   20.0010000   21.8120000  
C 20.1340000   21.1350000   22.3530000  
N 19.1380000   22.0270000   22.7070000  
O 22.3870000   20.3190000   22.4570000  
C 21.5530000   21.4050000   22.5030000  
O 21.9590000   22.5700000   22.6580000  
O 14.3530000   21.6930000   21.9130000  
O 14.7500000   19.2540000   20.9140000  
H 20.2110000   19.2700000   21.2990000  
H 21.7400000   19.6180000   22.4800000  
H 19.3200000   22.9000000   23.2250000  
H 14.4530000   22.6140000   22.2480000  
H 14.0550000   19.9050000   20.8770000  
C 16.3330000   23.2840000   22.9730000  
C 16.7560000   24.2490000   22.0730000  
C 16.5500000   25.5490000   22.3400000  
C 15.9380000   25.9620000   23.5450000  
C 15.2470000   24.9990000   24.3120000  
C 15.5650000   23.6680000   24.0950000  
C 17.5150000   24.1650000   20.8020000  
C 17.6140000   25.4850000   20.3590000  
N 17.0840000   26.3190000   21.2910000  
O 18.5690000   24.9580000   18.2900000  
C 18.1150000   25.9890000   19.0290000  
O 18.1320000   27.1610000   18.7090000  
O 14.6280000   25.4100000   25.4210000  
O 15.0710000   22.7060000   24.9120000  
H 17.8110000   23.3140000   20.3320000  
H 18.7640000   24.2970000   18.9220000  
H 17.0490000   27.2890000   21.2360000  
H 14.5750000   24.6110000   25.9450000  
H 15.6660000   21.9710000   24.7070000  
H 15.6930000   27.0910000   23.6510000  
