76
011 
C 13.7390000   12.6750000   23.4300000  
C 14.4960000   11.3870000   23.2640000  
C 15.8120000   11.4760000   22.9630000  
C 16.5460000   12.6300000   22.7630000  
C 15.8650000   13.9190000   22.9020000  
C 14.5090000   13.9630000   23.1890000  
C 16.8110000   10.4820000   22.9930000  
C 18.0060000   11.1610000   22.6890000  
N 17.8180000   12.4980000   22.5860000  
O 19.4340000    9.3410000   22.5070000  
C 19.3760000   10.6730000   22.5020000  
O 20.3980000   11.3270000   22.4390000  
O 13.7840000   15.0440000   23.2040000  
O 12.5120000   12.6090000   23.7340000  
H 14.0170000   10.5140000   23.6100000  
H 16.6790000    9.4300000   23.2150000  
H 18.5310000    8.9650000   22.5750000  
H 14.3610000   15.7900000   23.4930000  
C 16.6130000   15.1910000   22.6190000  
C 16.8580000   15.6700000   21.3270000  
C 17.4250000   16.8610000   21.1050000  
C 17.6850000   17.7600000   22.1290000  
C 17.4410000   17.3550000   23.4600000  
C 16.9130000   16.0470000   23.6970000  
C 16.7910000   15.0240000   20.0040000  
C 17.4280000   15.8910000   19.1030000  
N 17.6960000   17.1360000   19.7930000  
O 17.2230000   14.5770000   17.1560000  
C 17.5500000   15.7770000   17.6420000  
O 17.9590000   16.6410000   16.8950000  
O 17.6100000   18.1530000   24.4950000  
O 16.8030000   15.6220000   24.9800000  
H 16.4340000   14.0040000   19.8220000  
H 16.8790000   14.0730000   17.9370000  
H 18.1850000   17.9270000   19.4140000  
H 18.1050000   18.8260000   24.1120000  
H 16.7930000   16.4260000   25.5840000  
C 18.1480000   19.1630000   21.7540000  
C 17.4220000   20.0470000   20.9820000  
C 17.7790000   21.3640000   20.7500000  
C 18.9480000   21.9440000   21.2680000  
C 19.7630000   21.0160000   22.0080000  
C 19.4010000   19.6820000   22.2890000  
C 16.1770000   19.8360000   20.3500000  
C 15.7980000   21.0390000   19.7810000  
N 16.7170000   21.9840000   20.0920000  
O 14.0380000   20.0430000   18.5580000  
C 14.6480000   21.2030000   18.9170000  
O 14.3890000   22.2550000   18.3220000  
O 21.0090000   21.5000000   22.4220000  
O 20.2440000   18.8570000   22.9630000  
H 15.6550000   18.9010000   20.4340000  
H 14.6670000   19.4130000   18.8580000  
H 16.6280000   22.9250000   19.6850000  
H 20.9130000   22.4270000   22.6880000  
H 21.0510000   19.2960000   23.1790000  
C 19.4050000   23.3640000   21.0350000  
C 19.2830000   24.2760000   22.0710000  
C 19.7810000   25.5640000   21.9280000  
C 20.6170000   25.8800000   20.9190000  
C 20.7240000   25.0020000   19.8440000  
C 20.1390000   23.7440000   19.9090000  
C 18.5880000   24.1730000   23.3370000  
C 18.7800000   25.4330000   23.9420000  
N 19.4570000   26.3080000   23.0520000  
O 17.7230000   24.9110000   26.1010000  
C 18.3400000   25.8200000   25.2760000  
O 18.6000000   26.9060000   25.7030000  
O 21.4270000   25.3570000   18.6990000  
O 20.3920000   22.9270000   18.9100000  
H 18.1290000   23.3150000   23.8190000  
H 17.7190000   24.0670000   25.5660000  
H 19.7480000   27.2830000   23.2980000  
H 21.6360000   26.3580000   18.7840000  
H 21.0750000   23.3500000   18.3230000  
H 21.0290000   26.8540000   20.9670000  
