76
011 
C 15.3590000   16.5300000   28.5030000  
C 15.4170000   17.7220000   29.3070000  
C 15.8900000   18.8480000   28.7830000  
C 16.2280000   19.0390000   27.4690000  
C 16.0990000   17.9110000   26.5620000  
C 15.7640000   16.6750000   27.0440000  
C 15.9160000   20.1720000   29.3530000  
C 16.4020000   21.0050000   28.3630000  
N 16.5810000   20.2900000   27.1950000  
O 16.5410000   22.8550000   29.7960000  
C 16.5590000   22.4520000   28.5090000  
O 16.9680000   23.1400000   27.6270000  
O 15.5480000   15.5630000   26.3480000  
O 14.8470000   15.5610000   29.0220000  
H 15.0490000   17.6610000   30.3170000  
H 15.5230000   20.4580000   30.3530000  
H 16.2550000   22.1010000   30.3360000  
H 15.6180000   15.9400000   25.4400000  
C 16.5260000   18.1730000   25.1700000  
C 17.8330000   18.5070000   24.8430000  
C 18.1400000   18.7380000   23.5410000  
C 17.2630000   18.6720000   22.4700000  
C 15.9260000   18.3400000   22.7900000  
C 15.5790000   18.0550000   24.1520000  
C 19.0370000   18.7930000   25.6110000  
C 19.9930000   19.2330000   24.6510000  
N 19.4130000   19.1730000   23.3880000  
O 21.5270000   20.1840000   26.1730000  
C 21.3400000   19.8160000   24.9050000  
O 22.2310000   19.9070000   24.0880000  
O 14.9960000   18.4790000   21.8050000  
O 14.2740000   17.7390000   24.4510000  
H 19.0740000   18.7900000   26.7060000  
H 20.6650000   20.0730000   26.5930000  
H 19.7460000   19.6530000   22.5140000  
H 15.4110000   19.0810000   21.1550000  
H 13.6700000   17.9090000   23.6900000  
C 17.6560000   18.8000000   21.0300000  
C 17.6790000   17.6500000   20.1960000  
C 18.1990000   17.7510000   18.9310000  
C 18.7260000   18.9300000   18.3830000  
C 18.6010000   20.0480000   19.2000000  
C 18.1560000   19.9660000   20.5010000  
C 17.4410000   16.2230000   20.4140000  
C 17.7720000   15.5850000   19.1850000  
N 18.2390000   16.5360000   18.2620000  
O 17.6960000   13.3780000   20.0150000  
C 17.7130000   14.0760000   18.8830000  
O 17.8140000   13.6090000   17.7740000  
O 19.0750000   21.1910000   18.7250000  
O 18.3190000   21.0750000   21.2810000  
H 17.2890000   15.6730000   21.3440000  
H 17.8510000   13.9810000   20.7760000  
H 18.7820000   16.2160000   17.4420000  
H 19.3370000   20.9080000   17.8000000  
H 18.3000000   21.8610000   20.6980000  
C 19.1960000   19.0750000   17.0020000  
C 18.3640000   18.6160000   15.9250000  
C 18.8280000   18.6790000   14.6650000  
C 20.0180000   19.3660000   14.3530000  
C 20.9200000   19.6790000   15.3260000  
C 20.5230000   19.5300000   16.6640000  
C 17.0240000   18.0430000   15.9310000  
C 16.7280000   17.7740000   14.6350000  
N 17.7610000   18.2870000   13.7740000  
O 14.5400000   17.1210000   15.1650000  
C 15.3610000   17.2850000   14.1380000  
O 15.0450000   17.1630000   12.9420000  
O 22.1060000   20.2600000   15.0040000  
O 21.4580000   19.9380000   17.6040000  
H 16.3760000   17.9590000   16.7790000  
H 14.9320000   17.4910000   15.9820000  
H 17.6950000   18.2610000   12.7870000  
H 21.8490000   20.9580000   14.3830000  
H 22.2700000   20.0680000   17.0550000  
H 20.3850000   19.4390000   13.2750000  
