76
011 
C 13.8090000   13.0330000   24.5630000  
C 13.9270000   11.8950000   23.6590000  
C 14.8370000   11.8680000   22.6550000  
C 15.6660000   12.8950000   22.3300000  
C 15.5990000   14.1360000   23.1230000  
C 14.7270000   14.2130000   24.1580000  
C 15.0700000   10.8930000   21.6940000  
C 16.1270000   11.3400000   20.9350000  
N 16.4710000   12.6130000   21.3410000  
O 16.1660000    9.4890000   19.4570000  
C 16.7210000   10.6620000   19.7930000  
O 17.6600000   11.1750000   19.2290000  
O 14.7240000   15.3120000   24.9240000  
O 13.0850000   12.9950000   25.5410000  
H 13.2340000   11.0660000   23.8260000  
H 14.6000000    9.8860000   21.7550000  
H 15.3770000    9.3620000   20.0040000  
H 15.3260000   15.9680000   24.5180000  
C 16.4050000   15.3160000   22.5970000  
C 15.9150000   15.9360000   21.4220000  
C 16.4210000   17.1270000   21.0910000  
C 17.5100000   17.7430000   21.6670000  
C 18.0130000   17.0820000   22.7960000  
C 17.4720000   15.8700000   23.2750000  
C 14.8790000   15.6100000   20.4350000  
C 14.9150000   16.7160000   19.5330000  
N 15.9150000   17.6060000   19.9580000  
O 13.3880000   15.8700000   17.9500000  
C 14.0970000   16.9390000   18.3600000  
O 14.0670000   17.9930000   17.7510000  
O 18.9470000   17.7450000   23.5270000  
O 17.8840000   15.2580000   24.4500000  
H 14.2460000   14.6900000   20.3720000  
H 13.8970000   15.1810000   18.4360000  
H 16.2980000   18.3940000   19.4310000  
H 18.9240000   18.6810000   23.0970000  
H 18.3080000   15.9040000   25.0200000  
C 17.9750000   19.0910000   21.1670000  
C 17.8690000   20.2350000   21.9900000  
C 18.4950000   21.3970000   21.7690000  
C 19.2510000   21.6400000   20.5820000  
C 19.2490000   20.6240000   19.6900000  
C 18.5790000   19.3680000   19.8960000  
C 17.2230000   20.4450000   23.3000000  
C 17.4550000   21.7150000   23.7350000  
N 18.1970000   22.3550000   22.7830000  
O 15.9650000   21.5870000   25.6480000  
C 16.9090000   22.3060000   25.0200000  
O 17.1960000   23.4620000   25.3250000  
O 19.9590000   20.8360000   18.5720000  
O 18.7450000   18.3690000   18.9200000  
H 16.7100000   19.7680000   23.9160000  
H 15.8470000   20.8460000   25.0940000  
H 18.5300000   23.3430000   22.8470000  
H 20.6920000   21.4730000   18.6780000  
H 19.4210000   18.5720000   18.2250000  
C 19.7980000   23.0030000   20.4010000  
C 20.8700000   23.4620000   21.2610000  
C 21.3830000   24.6920000   21.1930000  
C 20.9620000   25.5290000   20.1800000  
C 19.9370000   25.1490000   19.3160000  
C 19.3440000   23.9040000   19.3640000  
C 21.4120000   22.8490000   22.4230000  
C 22.2320000   23.8170000   23.0030000  
N 22.3020000   24.9120000   22.2090000  
O 22.8100000   22.4610000   24.8500000  
C 22.9890000   23.6720000   24.2920000  
O 23.7920000   24.4680000   24.7650000  
O 19.5090000   26.0600000   18.3870000  
O 18.3700000   23.5880000   18.4570000  
H 21.3190000   21.8400000   22.8660000  
H 22.1280000   22.0120000   24.2950000  
H 22.7640000   25.8090000   22.4390000  
H 19.7370000   26.9210000   18.6990000  
H 18.0780000   24.4030000   17.9920000  
H 21.2850000   26.5230000   20.1590000  
