76
011 
C 16.9850000   16.6900000   28.9570000  
C 17.3570000   17.9060000   29.7210000  
C 17.7110000   19.0250000   29.0680000  
C 17.7070000   19.1170000   27.6340000  
C 17.2230000   18.0020000   26.8470000  
C 16.9080000   16.7810000   27.4230000  
C 18.1660000   20.1920000   29.6000000  
C 18.4180000   20.9870000   28.4470000  
N 18.1000000   20.3140000   27.2480000  
O 19.6090000   22.7040000   29.6040000  
C 19.1680000   22.2620000   28.3910000  
O 19.2980000   22.9760000   27.4150000  
O 16.5290000   15.6280000   26.8310000  
O 16.7090000   15.6590000   29.5080000  
H 17.3950000   17.7730000   30.7840000  
H 18.3260000   20.4010000   30.6620000  
H 19.4360000   21.9230000   30.1660000  
H 16.5840000   15.6100000   25.8680000  
C 17.2850000   18.0890000   25.3980000  
C 18.1850000   17.2760000   24.6650000  
C 18.2890000   17.4340000   23.3220000  
C 17.3810000   18.1900000   22.5550000  
C 16.3280000   18.8040000   23.3100000  
C 16.4030000   18.8820000   24.6640000  
C 19.1500000   16.3520000   25.1830000  
C 19.8720000   15.9590000   24.0680000  
N 19.2300000   16.5040000   22.8870000  
O 21.5930000   14.8260000   25.2430000  
C 21.0750000   15.1300000   23.9850000  
O 21.5960000   14.7530000   22.9950000  
O 15.4760000   19.5850000   22.7010000  
O 15.4760000   19.6240000   25.3790000  
H 19.2620000   15.9730000   26.2170000  
H 21.0360000   15.4090000   25.8080000  
H 19.4540000   16.1690000   21.9470000  
H 15.7900000   19.7300000   21.7760000  
H 15.0540000   20.2110000   24.7660000  
C 17.6100000   18.3750000   21.0750000  
C 16.6580000   17.9890000   20.1380000  
C 16.8800000   18.0340000   18.7600000  
C 18.0980000   18.4290000   18.1600000  
C 19.0310000   18.8300000   19.1580000  
C 18.8560000   18.8530000   20.5500000  
C 15.3400000   17.4800000   20.3480000  
C 14.8150000   17.3540000   19.0650000  
N 15.7270000   17.7090000   18.0770000  
O 12.7180000   16.4810000   19.7340000  
C 13.4190000   16.9110000   18.6950000  
O 13.0090000   16.8630000   17.5720000  
O 20.1610000   19.4790000   18.7460000  
O 19.8950000   19.1580000   21.3820000  
H 14.7340000   17.2070000   21.2370000  
H 13.3070000   16.7240000   20.4550000  
H 15.5440000   17.7210000   17.1180000  
H 20.0730000   19.4520000   17.7490000  
H 20.6920000   19.5010000   20.8490000  
C 18.3130000   18.4550000   16.6890000  
C 17.7370000   19.4090000   15.9250000  
C 17.9310000   19.4910000   14.5580000  
C 18.8470000   18.7370000   13.8730000  
C 19.1850000   17.5630000   14.5760000  
C 18.9890000   17.4560000   15.9930000  
C 17.0580000   20.6650000   16.3850000  
C 16.8970000   21.3960000   15.2500000  
N 17.4090000   20.6900000   14.1400000  
O 15.8540000   23.2620000   16.3450000  
C 16.2270000   22.7100000   15.1260000  
O 16.0720000   23.1810000   14.0130000  
O 19.8990000   16.5470000   13.9610000  
O 19.4580000   16.3300000   16.5370000  
H 16.7330000   20.9110000   17.4200000  
H 15.9660000   22.5940000   17.0090000  
H 17.4170000   20.9120000   13.2240000  
H 20.1050000   16.8500000   13.0860000  
H 19.8030000   15.7300000   15.8520000  
H 19.0230000   18.9160000   12.7880000  
