76
011 
C 19.7700000   17.5260000   28.8550000  
C 20.4540000   16.2000000   28.9800000  
C 20.7590000   15.4790000   27.8000000  
C 20.3660000   15.9420000   26.5650000  
C 19.5460000   17.1240000   26.3880000  
C 19.1990000   17.8500000   27.4800000  
C 21.6480000   14.4190000   27.5470000  
C 21.6030000   14.2300000   26.2010000  
N 20.7910000   15.1190000   25.5980000  
O 23.2900000   12.3740000   26.1040000  
C 22.3150000   13.1200000   25.4830000  
O 22.1140000   12.8570000   24.3280000  
O 18.4940000   18.9650000   27.4500000  
O 19.6170000   18.2510000   29.8310000  
H 20.7970000   15.9260000   29.9440000  
H 22.1920000   13.8930000   28.2560000  
H 23.1780000   12.7230000   27.0090000  
H 18.0450000   18.9730000   26.5880000  
C 19.1350000   17.5090000   25.0510000  
C 17.9130000   17.1710000   24.5840000  
C 17.5120000   17.4750000   23.3030000  
C 18.2630000   18.2970000   22.4560000  
C 19.4740000   18.7990000   23.0040000  
C 19.9530000   18.3610000   24.2290000  
C 16.8850000   16.2440000   25.0870000  
C 15.9130000   16.1440000   24.1190000  
N 16.2970000   16.9170000   23.0240000  
O 14.3920000   14.7180000   25.2600000  
C 14.8130000   15.1130000   24.0430000  
O 14.1930000   14.7490000   23.0510000  
O 20.1630000   19.7500000   22.2710000  
O 21.2960000   18.5470000   24.4730000  
H 16.8950000   15.6540000   25.9980000  
H 15.0100000   15.1480000   25.8270000  
H 15.8340000   17.0030000   22.2030000  
H 20.1350000   19.4250000   21.2860000  
H 21.5490000   19.2250000   23.8180000  
C 17.6800000   18.7120000   21.1320000  
C 17.3410000   19.9960000   20.7830000  
C 16.6490000   20.2330000   19.6780000  
C 16.1740000   19.2710000   18.6820000  
C 16.5660000   17.9630000   19.0250000  
C 17.2600000   17.6520000   20.2370000  
C 17.4820000   21.3130000   21.4380000  
C 16.9030000   22.2690000   20.6510000  
N 16.3630000   21.6180000   19.5380000  
O 17.4730000   24.1930000   21.9990000  
C 16.8110000   23.6940000   20.9190000  
O 16.1950000   24.3910000   20.1520000  
O 16.1910000   16.9610000   18.1070000  
O 17.6160000   16.2730000   20.3840000  
H 17.9830000   21.5140000   22.3730000  
H 17.6560000   23.4090000   22.5120000  
H 15.7680000   22.1220000   18.8390000  
H 16.1510000   17.3790000   17.2610000  
H 17.1940000   15.8020000   19.6640000  
C 15.3540000   19.6040000   17.4930000  
C 15.7920000   20.5390000   16.5090000  
C 15.0920000   20.9420000   15.4040000  
C 13.8320000   20.3940000   15.1590000  
C 13.2190000   19.5560000   16.1670000  
C 14.0630000   19.1150000   17.2350000  
C 17.0170000   21.4190000   16.4460000  
C 16.9370000   22.2180000   15.2950000  
N 15.7250000   21.9520000   14.7120000  
O 19.0670000   23.2220000   15.4930000  
C 17.9680000   23.1700000   14.7400000  
O 17.8640000   23.9380000   13.8290000  
O 11.8760000   19.1410000   16.0520000  
O 13.5010000   18.3170000   18.1820000  
H 17.8070000   21.3950000   17.1560000  
H 18.9680000   22.4400000   16.0870000  
H 15.3890000   22.4070000   13.9000000  
H 11.6340000   19.4190000   15.2300000  
H 12.5530000   18.1110000   18.0170000  
H 13.2940000   20.6150000   14.2390000  
