76
011 
C 20.0910000   15.7930000   28.4000000  
C 21.5710000   15.7460000   28.2400000  
C 22.1840000   16.2530000   27.1470000  
C 21.4290000   16.8060000   26.1040000  
C 20.0120000   16.9040000   26.1870000  
C 19.3710000   16.3860000   27.3040000  
C 23.5220000   16.3510000   26.7630000  
C 23.4430000   16.8860000   25.4840000  
N 22.1210000   17.1260000   25.0290000  
O 25.7260000   16.5430000   25.0540000  
C 24.6330000   17.1420000   24.6690000  
O 24.5220000   17.7220000   23.6030000  
O 18.0730000   16.5350000   27.5820000  
O 19.5320000   15.3730000   29.4340000  
H 22.1030000   15.2720000   29.1000000  
H 24.4270000   15.9990000   27.2710000  
H 25.4180000   15.9460000   25.7620000  
H 17.6900000   17.2740000   27.0190000  
C 19.2300000   17.5590000   25.1260000  
C 19.2120000   17.0360000   23.8460000  
C 18.3760000   17.5360000   22.9090000  
C 17.5520000   18.6900000   23.0350000  
C 17.5800000   19.3110000   24.3320000  
C 18.3440000   18.6990000   25.3950000  
C 19.9110000   15.9330000   23.2520000  
C 19.6170000   15.9620000   21.9060000  
N 18.6490000   16.9780000   21.7010000  
O 20.8840000   14.0410000   21.1780000  
C 20.1740000   15.1520000   20.8400000  
O 20.0010000   15.3630000   19.6920000  
O 16.8790000   20.4040000   24.6770000  
O 18.4810000   19.3000000   26.6360000  
H 20.7300000   15.3690000   23.7150000  
H 20.8280000   14.0400000   22.1360000  
H 18.1090000   17.1910000   20.8580000  
H 16.4760000   20.6480000   23.7840000  
H 17.9160000   20.1330000   26.6200000  
C 16.8670000   19.2790000   21.9050000  
C 15.9810000   18.4840000   21.1170000  
C 15.4990000   18.9560000   19.9010000  
C 15.9250000   20.1000000   19.1980000  
C 16.8880000   20.8390000   20.0350000  
C 17.3090000   20.5110000   21.3060000  
C 15.2880000   17.2170000   21.3380000  
C 14.6130000   16.9410000   20.1180000  
N 14.7780000   18.0230000   19.2140000  
O 13.6000000   14.8930000   20.8210000  
C 13.8940000   15.6890000   19.7890000  
O 13.6400000   15.3690000   18.6520000  
O 17.2700000   22.0170000   19.4380000  
O 18.0070000   21.3890000   22.0010000  
H 15.2790000   16.5450000   22.1690000  
H 14.0930000   15.2220000   21.6380000  
H 14.4090000   18.1060000   18.2410000  
H 16.7920000   22.1500000   18.5870000  
H 18.3560000   22.1360000   21.4440000  
C 15.5170000   20.4330000   17.8220000  
C 14.6070000   21.4650000   17.6090000  
C 14.0990000   21.7370000   16.3210000  
C 14.5350000   20.9850000   15.1910000  
C 15.4660000   19.9630000   15.3800000  
C 15.9670000   19.6610000   16.6920000  
C 14.0100000   22.3850000   18.5050000  
C 13.2040000   23.1990000   17.6800000  
N 13.3000000   22.7630000   16.3600000  
O 12.2900000   24.6440000   19.3380000  
C 12.3230000   24.3520000   18.0130000  
O 11.4970000   24.7930000   17.2250000  
O 15.7450000   19.1000000   14.3950000  
O 16.9490000   18.7520000   16.9680000  
H 14.1880000   22.4240000   19.5240000  
H 13.1490000   24.2950000   19.7280000  
H 12.7310000   23.2230000   15.5730000  
H 15.8100000   18.2060000   14.8080000  
H 16.9150000   18.5230000   17.9200000  
H 14.0900000   21.1370000   14.2530000  
