76
011 
C 13.7420000   22.5710000   26.5350000  
C 13.6730000   21.7130000   27.7480000  
C 14.4020000   20.4780000   27.7850000  
C 15.0690000   19.9470000   26.7100000  
C 15.0820000   20.6970000   25.5080000  
C 14.4540000   21.9550000   25.3930000  
C 14.6160000   19.5540000   28.8390000  
C 15.4680000   18.5740000   28.3340000  
N 15.6850000   18.8340000   27.0050000  
O 15.7470000   17.3420000   30.3540000  
C 16.0270000   17.3980000   29.0070000  
O 16.6780000   16.4720000   28.5320000  
O 14.3480000   22.6050000   24.1960000  
O 13.0930000   23.6040000   26.3850000  
H 13.2210000   22.2260000   28.5640000  
H 14.2660000   19.7280000   29.7830000  
H 15.2520000   18.2390000   30.4790000  
H 14.9280000   22.1550000   23.5420000  
C 15.8200000   20.0920000   24.3580000  
C 15.2050000   19.0920000   23.6370000  
C 15.8410000   18.3700000   22.6570000  
C 17.1540000   18.6840000   22.1870000  
C 17.7760000   19.7290000   22.8650000  
C 17.0660000   20.4860000   23.8530000  
C 14.0090000   18.2810000   23.9270000  
C 14.0400000   17.1930000   23.0470000  
N 15.1640000   17.2340000   22.2330000  
O 11.8860000   16.4210000   23.8510000  
C 12.8800000   16.2310000   22.9070000  
O 12.7610000   15.3490000   22.0640000  
O 19.1260000   20.0450000   22.5360000  
O 17.7480000   21.5060000   24.3630000  
H 13.1700000   18.4290000   24.6950000  
H 12.2760000   17.1640000   24.3150000  
H 15.4210000   16.6290000   21.4910000  
H 19.4870000   19.2940000   21.9860000  
H 18.5500000   21.5560000   23.7690000  
C 17.8160000   18.0690000   21.0170000  
C 17.7900000   18.8550000   19.8120000  
C 18.4480000   18.4880000   18.6990000  
C 19.2510000   17.3470000   18.6420000  
C 18.9930000   16.4460000   19.6650000  
C 18.3750000   16.7860000   20.8820000  
C 17.3830000   20.2190000   19.4620000  
C 17.7960000   20.5930000   18.2320000  
N 18.4330000   19.4320000   17.6560000  
O 16.8770000   22.8710000   18.3070000  
C 17.5520000   21.9330000   17.5760000  
O 17.9220000   22.2040000   16.4520000  
O 19.7500000   15.2670000   19.6750000  
O 18.3810000   15.8190000   21.8870000  
H 16.8990000   20.9350000   20.2030000  
H 16.4180000   22.4280000   19.0630000  
H 19.0150000   19.3820000   16.8010000  
H 20.4260000   15.2290000   18.9620000  
H 18.8060000   15.0060000   21.5890000  
C 20.0980000   17.0770000   17.4670000  
C 21.4900000   16.8110000   17.7170000  
C 22.4200000   16.6320000   16.6910000  
C 22.0430000   16.8030000   15.3650000  
C 20.6750000   17.0330000   15.0850000  
C 19.7260000   17.2070000   16.1120000  
C 22.2540000   16.7410000   18.9340000  
C 23.5570000   16.3670000   18.6040000  
N 23.6950000   16.3210000   17.2400000  
O 24.3210000   16.3930000   20.8150000  
C 24.6710000   16.1690000   19.5490000  
O 25.7720000   15.6810000   19.2600000  
O 20.2310000   17.1080000   13.8190000  
O 18.4030000   17.3450000   15.8320000  
H 21.8330000   16.6860000   19.9240000  
H 23.3940000   16.7110000   20.7290000  
H 24.6020000   16.1290000   16.8080000  
H 20.9610000   17.0380000   13.2160000  
H 17.9500000   17.3650000   16.6590000  
H 22.6810000   16.4060000   14.5470000  
