76
011 
C 14.4380000   19.9370000   28.5830000  
C 15.4420000   20.8970000   29.0850000  
C 16.4440000   21.3510000   28.2700000  
C 16.6520000   20.8980000   26.9530000  
C 15.7600000   19.9580000   26.3870000  
C 14.7110000   19.4950000   27.1480000  
C 17.5440000   22.1640000   28.5760000  
C 18.3060000   22.1580000   27.4410000  
N 17.6980000   21.4240000   26.3970000  
O 20.0880000   23.3300000   28.4040000  
C 19.6340000   22.7310000   27.2970000  
O 20.3730000   22.7400000   26.2910000  
O 13.8630000   18.5850000   26.7100000  
O 13.5600000   19.4660000   29.3080000  
H 15.3660000   21.1620000   30.1500000  
H 17.6910000   22.5920000   29.6130000  
H 19.3800000   23.2900000   29.1490000  
H 14.1290000   18.2360000   25.8400000  
C 16.1160000   19.4000000   25.1080000  
C 17.2450000   18.6120000   24.9160000  
C 17.6020000   18.1510000   23.6900000  
C 16.9640000   18.5620000   22.4760000  
C 15.8090000   19.3450000   22.6210000  
C 15.3670000   19.7180000   23.9050000  
C 18.3260000   18.2360000   25.8370000  
C 19.1850000   17.4350000   25.0700000  
N 18.7280000   17.3820000   23.7930000  
O 20.8420000   17.4150000   26.7990000  
C 20.5250000   17.0130000   25.5180000  
O 21.3130000   16.4530000   24.8020000  
O 15.0260000   19.6900000   21.5540000  
O 14.1860000   20.4450000   24.0920000  
H 18.3310000   18.4610000   26.9180000  
H 20.1690000   18.0880000   27.0090000  
H 19.2900000   17.1310000   23.0290000  
H 15.5090000   19.4860000   20.7400000  
H 14.0810000   21.1860000   23.5210000  
C 17.4850000   18.1360000   21.1470000  
C 16.7600000   17.3710000   20.2500000  
C 17.2730000   17.0420000   19.0020000  
C 18.6140000   17.3500000   18.6190000  
C 19.3820000   18.0870000   19.5350000  
C 18.8400000   18.4170000   20.7790000  
C 15.4200000   16.8740000   20.3000000  
C 15.1250000   16.3090000   19.0640000  
N 16.3110000   16.4550000   18.2460000  
O 12.7330000   15.7950000   19.4070000  
C 13.7760000   15.8230000   18.5970000  
O 13.6400000   15.6570000   17.4740000  
O 20.6550000   18.4130000   19.2920000  
O 19.5770000   19.1300000   21.6870000  
H 14.7640000   16.9930000   21.1620000  
H 13.0580000   16.0970000   20.2980000  
H 16.2630000   16.1510000   17.2450000  
H 20.9380000   17.9820000   18.4450000  
H 18.9970000   19.5880000   22.3430000  
C 19.2090000   16.7260000   17.3910000  
C 19.3520000   17.5300000   16.2720000  
C 19.7550000   17.0560000   15.0110000  
C 20.1920000   15.7420000   14.8040000  
C 20.0120000   14.8850000   15.9550000  
C 19.6180000   15.3870000   17.2270000  
C 18.9310000   18.9100000   16.0460000  
C 19.0560000   19.1380000   14.6620000  
N 19.6750000   18.0060000   14.0220000  
O 18.5400000   21.4240000   14.8450000  
C 18.8860000   20.4820000   14.0060000  
O 18.9860000   20.6400000   12.8050000  
O 20.1810000   13.5270000   15.7530000  
O 19.4920000   14.5580000   18.3100000  
H 18.4580000   19.5300000   16.7850000  
H 18.3660000   20.9490000   15.6890000  
H 19.8190000   17.8730000   12.9610000  
H 20.1270000   13.0540000   16.6570000  
H 19.0450000   15.1330000   18.9730000  
H 20.4570000   15.2750000   13.8270000  
