76
011 
C 18.1650000   17.3690000   29.2620000  
C 19.5200000   16.7420000   29.4320000  
C 20.4200000   16.7950000   28.3950000  
C 20.0670000   17.1510000   27.0620000  
C 18.6890000   17.5250000   26.7680000  
C 17.7780000   17.6440000   27.8450000  
C 21.8490000   16.6500000   28.3540000  
C 22.2080000   16.8940000   27.0380000  
N 21.0870000   17.2060000   26.2640000  
O 24.4810000   16.3060000   27.2360000  
C 23.5560000   16.8630000   26.4170000  
O 23.7840000   17.2400000   25.3000000  
O 16.5160000   18.1450000   27.6530000  
O 17.4510000   17.6760000   30.1910000  
H 19.8740000   16.3830000   30.4260000  
H 22.5910000   16.4190000   29.1020000  
H 24.0370000   15.9710000   28.0270000  
H 16.3160000   17.9180000   26.7050000  
C 18.3320000   17.9330000   25.4280000  
C 17.5470000   17.0570000   24.6090000  
C 17.3010000   17.2900000   23.3050000  
C 17.7170000   18.4170000   22.6480000  
C 18.4830000   19.3430000   23.4110000  
C 18.7500000   19.1220000   24.7770000  
C 16.9330000   15.7600000   24.8840000  
C 16.3250000   15.3150000   23.7140000  
N 16.5550000   16.3000000   22.7160000  
O 15.6850000   13.1910000   24.4650000  
C 15.6580000   14.0020000   23.4070000  
O 15.2610000   13.6310000   22.3320000  
O 18.9500000   20.5180000   22.8430000  
O 19.5580000   19.9450000   25.4140000  
H 17.0070000   15.2040000   25.7920000  
H 16.1270000   13.4970000   25.2730000  
H 16.3810000   16.2240000   21.7430000  
H 18.5690000   20.6330000   21.8790000  
H 20.0340000   20.4250000   24.6430000  
C 17.5050000   18.5310000   21.1720000  
C 16.7250000   19.5790000   20.7000000  
C 16.3510000   19.6750000   19.3780000  
C 16.8260000   18.8080000   18.3750000  
C 17.7440000   17.7770000   18.7930000  
C 18.0700000   17.6850000   20.1470000  
C 15.9020000   20.5840000   21.3100000  
C 15.1480000   21.2580000   20.3340000  
N 15.3680000   20.6040000   19.1760000  
O 14.2480000   22.8420000   21.8050000  
C 14.1800000   22.3210000   20.5770000  
O 13.4270000   22.7160000   19.7540000  
O 18.2310000   16.8780000   17.9140000  
O 19.0370000   16.6980000   20.4310000  
H 15.9040000   20.7610000   22.3300000  
H 14.8840000   22.2920000   22.2800000  
H 14.8820000   20.7170000   18.2560000  
H 17.7090000   16.9200000   17.0550000  
H 19.2750000   16.1700000   19.5970000  
C 16.3400000   18.9050000   16.9470000  
C 16.6380000   20.0870000   16.2190000  
C 16.1930000   20.2010000   14.9270000  
C 15.3260000   19.2820000   14.2740000  
C 14.9850000   18.1070000   14.9210000  
C 15.5000000   17.9040000   16.2810000  
C 17.4690000   21.1360000   16.5770000  
C 17.5840000   22.0320000   15.4990000  
N 16.7670000   21.4030000   14.5040000  
O 19.1690000   23.6230000   16.3200000  
C 18.4310000   23.2090000   15.2460000  
O 18.5340000   23.7450000   14.1450000  
O 14.1580000   17.1150000   14.3530000  
O 15.2250000   16.7780000   16.9200000  
H 18.0790000   21.3140000   17.5020000  
H 18.8120000   23.0990000   17.0420000  
H 16.8610000   21.6620000   13.4830000  
H 14.0390000   17.4300000   13.5250000  
H 14.5950000   16.2900000   16.2830000  
H 15.0620000   19.4890000   13.2570000  
