76
011 
C 10.2550000   18.2620000   21.9900000  
C  9.9240000   18.5230000   23.4250000  
C 10.9780000   18.6640000   24.3590000  
C 12.3020000   18.8230000   24.0220000  
C 12.6740000   18.4820000   22.6450000  
C 11.7370000   18.2080000   21.6980000  
C 10.8630000   18.9190000   25.7380000  
C 12.1630000   19.1250000   26.1570000  
N 13.0760000   19.0840000   25.0690000  
O 11.3850000   19.7710000   28.3650000  
C 12.5040000   19.7250000   27.5320000  
O 13.6450000   19.9880000   27.9070000  
O 12.0900000   17.8910000   20.4490000  
O  9.4240000   18.3520000   21.0650000  
H  8.9310000   18.8070000   23.6720000  
H  9.9110000   19.0770000   26.2310000  
H 10.7800000   19.4770000   27.7540000  
H 12.8920000   18.3770000   20.1350000  
C 14.1330000   18.4460000   22.3030000  
C 15.0110000   17.5070000   22.9740000  
C 16.3270000   17.5530000   22.7370000  
C 16.9950000   18.5270000   22.0230000  
C 16.1430000   19.4290000   21.3170000  
C 14.7450000   19.4750000   21.5180000  
C 14.8030000   16.4480000   23.9070000  
C 16.0440000   15.8780000   24.1100000  
N 17.0380000   16.5510000   23.4050000  
O 15.2740000   14.4290000   25.8170000  
C 16.3740000   14.8970000   25.1710000  
O 17.4870000   14.4980000   25.4490000  
O 16.7060000   20.3260000   20.4180000  
O 13.8790000   20.4410000   21.0470000  
H 13.9170000   16.1180000   24.3190000  
H 14.5130000   14.9310000   25.4390000  
H 18.0730000   16.3930000   23.4400000  
H 17.6830000   20.2070000   20.4670000  
H 14.3580000   20.9780000   20.3930000  
C 18.4800000   18.4690000   21.8500000  
C 18.9950000   17.8790000   20.7070000  
C 20.3090000   18.0160000   20.4120000  
C 21.3340000   18.6010000   21.1820000  
C 20.8590000   19.0580000   22.4400000  
C 19.4610000   18.9370000   22.7610000  
C 18.4140000   17.2050000   19.5730000  
C 19.4390000   16.9060000   18.7170000  
N 20.6420000   17.4410000   19.2510000  
O 18.0810000   15.5510000   17.4040000  
C 19.2960000   16.1180000   17.4620000  
O 20.1500000   15.8700000   16.6270000  
O 21.6670000   19.6320000   23.3350000  
O 19.0550000   19.3300000   23.9880000  
H 17.4170000   16.8840000   19.4130000  
H 17.5360000   15.8740000   18.1740000  
H 21.4990000   17.7140000   18.9150000  
H 22.5640000   19.6090000   22.9740000  
H 19.8380000   19.6970000   24.3910000  
C 22.7150000   18.8740000   20.6220000  
C 22.8770000   19.7500000   19.5530000  
C 24.1200000   19.9850000   18.9840000  
C 25.2690000   19.5540000   19.5510000  
C 25.1100000   18.6380000   20.6270000  
C 23.8430000   18.2960000   21.1710000  
C 21.8510000   20.4630000   18.8200000  
C 22.6330000   21.1510000   17.8620000  
N 24.0270000   20.7960000   17.9100000  
O 20.7880000   22.1890000   16.8490000  
C 22.1360000   22.1100000   16.8340000  
O 22.7770000   22.6680000   15.9850000  
O 26.2500000   18.2330000   21.1960000  
O 23.8050000   17.5920000   22.3460000  
H 20.7450000   20.5740000   19.0310000  
H 20.5130000   21.6970000   17.5730000  
H 24.7670000   21.1550000   17.3720000  
H 26.9440000   18.4850000   20.5630000  
H 22.9380000   17.3110000   22.5670000  
H 26.2350000   19.6580000   19.0900000  
