76
011 
C 10.5240000   19.3260000   23.1780000  
C 10.2060000   19.0400000   24.6060000  
C 11.2740000   18.8810000   25.4770000  
C 12.5910000   19.0170000   25.1490000  
C 12.9420000   19.3910000   23.8450000  
C 11.9680000   19.5290000   22.9140000  
C 11.2900000   18.4340000   26.7640000  
C 12.6530000   18.3350000   27.1270000  
N 13.4770000   18.7490000   26.0800000  
O 12.3370000   17.7450000   29.4240000  
C 13.2750000   18.0110000   28.4660000  
O 14.4400000   17.8390000   28.6940000  
O 12.2050000   19.8810000   21.6580000  
O  9.6650000   19.4890000   22.3870000  
H  9.2180000   18.7720000   24.8800000  
H 10.4550000   18.1180000   27.3820000  
H 11.5490000   17.9600000   28.9430000  
H 13.1170000   20.1860000   21.5140000  
C 14.3270000   19.4550000   23.3490000  
C 15.0320000   18.2440000   23.1410000  
C 16.2960000   18.2800000   22.6380000  
C 17.0430000   19.4470000   22.3320000  
C 16.3390000   20.6450000   22.5890000  
C 14.9750000   20.6970000   23.0280000  
C 14.6080000   16.8400000   23.1640000  
C 15.5950000   16.1200000   22.5650000  
N 16.6560000   16.9920000   22.2390000  
O 14.3180000   14.0310000   22.5870000  
C 15.3990000   14.6530000   22.1300000  
O 16.2120000   14.0810000   21.4390000  
O 16.9520000   21.7960000   22.2450000  
O 14.3110000   21.8710000   23.1120000  
H 13.7300000   16.3730000   23.5730000  
H 13.7400000   14.6820000   23.0060000  
H 17.5290000   16.6860000   21.9110000  
H 17.9050000   21.5330000   22.2050000  
H 14.8510000   22.6890000   23.0990000  
C 18.4050000   19.3670000   21.8310000  
C 18.6580000   18.7310000   20.6450000  
C 19.9280000   18.5460000   20.1390000  
C 21.0870000   18.9270000   20.7720000  
C 20.8560000   19.6090000   22.0100000  
C 19.5550000   19.8630000   22.4900000  
C 17.7590000   18.1100000   19.6710000  
C 18.5630000   17.4460000   18.7190000  
N 19.9380000   17.7490000   19.0400000  
O 16.8150000   16.3560000   17.4650000  
C 18.1500000   16.5120000   17.6650000  
O 18.9750000   15.9730000   16.9640000  
O 21.9680000   20.0830000   22.7050000  
O 19.4460000   20.4720000   23.6580000  
H 16.6930000   18.1160000   19.7300000  
H 16.3250000   16.7810000   18.2520000  
H 20.7650000   17.5360000   18.4120000  
H 22.7470000   19.8520000   22.0820000  
H 20.4170000   20.5430000   23.9010000  
C 22.4250000   18.5090000   20.3060000  
C 22.9480000   18.8800000   19.0390000  
C 24.2100000   18.4950000   18.6030000  
C 25.0840000   17.8720000   19.4640000  
C 24.6670000   17.5760000   20.7920000  
C 23.3080000   17.7810000   21.1720000  
C 22.4130000   19.6350000   17.9060000  
C 23.3660000   19.6710000   16.9000000  
N 24.5070000   19.0220000   17.3640000  
O 22.2730000   21.3500000   15.4680000  
C 23.3160000   20.4750000   15.6000000  
O 24.2110000   20.4650000   14.7720000  
O 25.6240000   16.8680000   21.5760000  
O 22.9600000   17.1320000   22.2950000  
H 21.4070000   20.0330000   17.8590000  
H 21.5730000   21.1790000   16.0500000  
H 25.3700000   19.0270000   16.9090000  
H 26.3440000   16.4940000   21.0300000  
H 22.0310000   17.3940000   22.2970000  
H 26.1260000   17.9580000   19.1650000  
