76
011 
C 15.9750000   16.7360000   28.5820000  
C 16.1630000   17.8720000   29.5020000  
C 16.5580000   19.0660000   28.9800000  
C 16.9420000   19.3380000   27.6090000  
C 16.8250000   18.2520000   26.7050000  
C 16.3000000   17.0420000   27.1430000  
C 16.8710000   20.3150000   29.5790000  
C 17.3310000   21.1850000   28.5890000  
N 17.2950000   20.5840000   27.3400000  
O 17.7890000   23.1300000   30.0490000  
C 17.7740000   22.5840000   28.7920000  
O 18.1010000   23.3190000   27.8660000  
O 16.2490000   15.9790000   26.2740000  
O 15.5920000   15.6200000   29.0070000  
H 16.0240000   17.6270000   30.5160000  
H 16.6620000   20.5430000   30.6810000  
H 17.6360000   22.4270000   30.7190000  
H 16.6050000   16.3100000   25.4170000  
C 17.2100000   18.4270000   25.2920000  
C 18.4110000   17.9640000   24.8300000  
C 18.6540000   18.0030000   23.5050000  
C 17.8630000   18.5620000   22.4880000  
C 16.6430000   19.1100000   22.9070000  
C 16.3130000   18.9480000   24.3130000  
C 19.5000000   17.1730000   25.3900000  
C 20.3310000   16.8130000   24.3520000  
N 19.7920000   17.2800000   23.1650000  
O 21.9140000   15.5100000   25.6300000  
C 21.5550000   15.9310000   24.4010000  
O 22.1740000   15.7140000   23.3550000  
O 15.8700000   19.9510000   22.1420000  
O 15.0430000   19.2660000   24.6860000  
H 19.7370000   17.0060000   26.4240000  
H 21.2190000   15.8120000   26.2210000  
H 20.2380000   17.1690000   22.3100000  
H 16.6150000   20.2310000   21.4630000  
H 14.5720000   19.3360000   23.9000000  
C 18.1590000   18.5010000   21.0260000  
C 17.3120000   17.7750000   20.1660000  
C 17.5550000   17.7610000   18.8260000  
C 18.6700000   18.4050000   18.2190000  
C 19.6130000   19.0680000   19.0830000  
C 19.3310000   19.0840000   20.4700000  
C 16.0820000   17.0670000   20.3420000  
C 15.7320000   16.4610000   19.1330000  
N 16.6590000   16.9000000   18.1710000  
O 13.8930000   15.0810000   19.8970000  
C 14.6410000   15.5090000   18.8050000  
O 14.3330000   15.0690000   17.7120000  
O 20.8340000   19.6290000   18.6690000  
O 20.2420000   19.6490000   21.2830000  
H 15.6220000   16.7980000   21.3000000  
H 14.2440000   15.6000000   20.6060000  
H 16.6100000   16.6990000   17.1850000  
H 21.0310000   19.2380000   17.8160000  
H 20.9300000   20.0490000   20.7240000  
C 18.8400000   18.4560000   16.6930000  
C 17.9050000   19.2530000   15.9930000  
C 18.0830000   19.4990000   14.6430000  
C 19.0760000   18.9830000   13.8610000  
C 20.1430000   18.3480000   14.5500000  
C 19.9620000   17.9910000   15.9390000  
C 16.6810000   19.9050000   16.4230000  
C 16.0480000   20.3340000   15.2750000  
N 16.9360000   20.0720000   14.2290000  
O 14.2680000   21.4420000   16.3640000  
C 14.8340000   21.1160000   15.1870000  
O 14.4020000   21.5160000   14.1440000  
O 21.2320000   18.0780000   13.8050000  
O 20.8320000   17.1490000   16.5640000  
H 16.2290000   20.0390000   17.4120000  
H 14.8280000   21.0590000   16.9910000  
H 16.7410000   20.4990000   13.3860000  
H 20.9720000   18.0830000   12.9240000  
H 21.6630000   17.0850000   16.1090000  
H 19.1910000   19.2250000   12.8380000  
