76
011 
C 22.7500000   13.6840000   24.7300000  
C 22.7070000   12.4440000   23.8610000  
C 21.7380000   12.3900000   22.8580000  
C 20.8920000   13.4440000   22.5370000  
C 21.0640000   14.6710000   23.1600000  
C 21.9190000   14.8390000   24.2290000  
C 21.4520000   11.3100000   22.0020000  
C 20.5460000   11.8360000   21.1400000  
N 20.1780000   13.1420000   21.4940000  
O 20.0290000    9.7720000   20.0170000  
C 19.8300000   11.0990000   20.0240000  
O 19.0530000   11.6010000   19.1970000  
O 21.9620000   16.0410000   24.9000000  
O 23.4480000   13.8560000   25.6930000  
H 23.3780000   11.6840000   24.1730000  
H 22.0870000   10.3760000   21.9620000  
H 20.6990000    9.6790000   20.6710000  
H 21.5380000   16.7640000   24.3670000  
C 20.2380000   15.7960000   22.6880000  
C 18.8600000   15.7870000   22.9320000  
C 18.0670000   16.8410000   22.4720000  
C 18.4430000   17.9170000   21.5900000  
C 19.8290000   17.8820000   21.3020000  
C 20.7110000   16.8430000   21.8300000  
C 18.0150000   15.0450000   23.8520000  
C 16.6860000   15.5810000   23.7290000  
N 16.7420000   16.7250000   22.8830000  
O 15.4490000   13.8640000   24.9310000  
C 15.3880000   14.9650000   24.1050000  
O 14.2630000   15.3010000   23.7750000  
O 20.3490000   18.9470000   20.6770000  
O 21.9580000   16.8000000   21.3550000  
H 18.3220000   14.1180000   24.2790000  
H 16.4020000   13.8480000   25.0650000  
H 16.0390000   17.3160000   22.5260000  
H 19.7460000   19.5470000   20.3110000  
H 22.0520000   17.7930000   21.2260000  
C 17.5870000   19.1530000   21.3310000  
C 17.0210000   19.9540000   22.3750000  
C 16.2470000   21.0140000   22.0300000  
C 15.8790000   21.4100000   20.6810000  
C 16.3140000   20.6410000   19.6410000  
C 17.1500000   19.5150000   20.0050000  
C 17.0110000   20.0050000   23.7400000  
C 16.2900000   21.0600000   24.2280000  
N 15.7560000   21.7230000   23.1060000  
O 17.0150000   20.8600000   26.4510000  
C 16.2630000   21.5650000   25.5910000  
O 15.6050000   22.4920000   26.0430000  
O 16.0240000   20.8540000   18.2980000  
O 17.5230000   18.6570000   19.0110000  
H 17.5860000   19.3070000   24.3740000  
H 17.6560000   20.3940000   25.8730000  
H 15.2190000   22.6060000   23.1150000  
H 15.2330000   21.3550000   18.1510000  
H 17.1460000   19.0520000   18.2090000  
C 14.8990000   22.5640000   20.5150000  
C 15.1310000   23.5580000   19.5220000  
C 14.1770000   24.5260000   19.2290000  
C 12.9420000   24.6110000   19.8650000  
C 12.6680000   23.6300000   20.8060000  
C 13.5840000   22.5850000   21.0940000  
C 16.3490000   23.8800000   18.8280000  
C 15.9890000   25.0690000   18.0580000  
N 14.7010000   25.4320000   18.3410000  
O 18.1800000   25.5770000   17.1810000  
C 16.8670000   25.9110000   17.1800000  
O 16.4180000   26.8640000   16.5410000  
O 11.4720000   23.6300000   21.4250000  
O 13.1370000   21.5190000   21.7940000  
H 17.3120000   23.4410000   18.9460000  
H 18.1190000   24.7320000   17.6480000  
H 14.2560000   26.1760000   17.9680000  
H 11.6260000   23.0940000   22.2280000  
H 13.8170000   20.7510000   21.7630000  
H 12.1970000   25.3860000   19.6690000  
