76
011 
C 14.3160000   11.9980000   23.1840000  
C 12.9420000   12.0150000   22.5390000  
C 12.5870000   13.0350000   21.6710000  
C 13.3810000   14.1100000   21.4530000  
C 14.7080000   14.2020000   22.0260000  
C 15.1840000   13.1600000   22.8140000  
C 11.3880000   13.3310000   20.9830000  
C 11.5470000   14.5790000   20.3320000  
N 12.8610000   15.0340000   20.6390000  
O  9.3970000   14.5950000   19.3010000  
C 10.4690000   15.3350000   19.7040000  
O 10.5070000   16.5310000   19.4950000  
O 16.3260000   13.2200000   23.4470000  
O 14.6680000   11.0590000   23.8680000  
H 12.2290000   11.2900000   22.9070000  
H 10.4610000   12.7800000   21.0190000  
H  9.6070000   13.6670000   19.5720000  
H 16.5260000   14.1780000   23.3210000  
C 15.5620000   15.4060000   21.7620000  
C 15.4130000   16.5720000   22.5160000  
C 16.2070000   17.6200000   22.3190000  
C 17.1940000   17.6990000   21.3270000  
C 17.4070000   16.4820000   20.6120000  
C 16.6610000   15.3330000   20.8730000  
C 14.5180000   16.9520000   23.5820000  
C 14.9060000   18.2430000   23.9410000  
N 15.9410000   18.6700000   23.1570000  
O 13.4080000   18.1810000   25.6740000  
C 14.2710000   19.0000000   25.0350000  
O 14.4240000   20.1210000   25.3080000  
O 18.4510000   16.4020000   19.6570000  
O 16.9520000   14.1420000   20.2230000  
H 13.6590000   16.3790000   23.9510000  
H 13.6710000   17.3220000   25.3410000  
H 16.3780000   19.5650000   23.1500000  
H 18.4670000   17.2850000   19.2740000  
H 17.5790000   14.3340000   19.4620000  
C 18.0600000   18.9420000   21.0700000  
C 19.0430000   19.3720000   22.0440000  
C 19.8320000   20.4920000   21.8610000  
C 19.6950000   21.3660000   20.8190000  
C 18.6640000   21.0110000   19.8440000  
C 17.8900000   19.7670000   19.9010000  
C 19.3380000   18.9010000   23.3780000  
C 20.2260000   19.7480000   23.9970000  
N 20.4910000   20.7680000   23.0180000  
O 20.5250000   18.5600000   26.0880000  
C 20.9680000   19.5910000   25.3390000  
O 21.7640000   20.4190000   25.7470000  
O 18.4630000   21.8060000   18.7560000  
O 17.0730000   19.4100000   18.9230000  
H 19.0790000   17.9660000   23.7330000  
H 19.8720000   18.0880000   25.4600000  
H 21.0110000   21.6480000   23.2090000  
H 19.2360000   22.3760000   18.5770000  
H 17.2880000   19.9400000   18.1550000  
C 20.5090000   22.5980000   20.6830000  
C 21.9310000   22.5640000   20.6540000  
C 22.6660000   23.6570000   20.4330000  
C 22.1070000   24.8900000   20.1690000  
C 20.7270000   24.9870000   20.2910000  
C 19.9210000   23.8590000   20.6350000  
C 22.9420000   21.5070000   20.9080000  
C 24.2220000   22.0450000   20.6840000  
N 23.9970000   23.3860000   20.4220000  
O 25.4730000   20.1070000   21.0030000  
C 25.5110000   21.4190000   20.7900000  
O 26.5850000   21.9770000   20.6760000  
O 20.0550000   26.1460000   19.9570000  
O 18.5580000   24.0660000   20.7520000  
H 22.7700000   20.5000000   21.2600000  
H 24.5370000   19.8950000   21.0890000  
H 24.6880000   24.0920000   20.2680000  
H 20.7300000   26.8480000   19.6730000  
H 18.3090000   24.9040000   21.2400000  
H 22.6510000   25.7920000   19.8350000  
