76
011 
C 16.2680000   18.0960000   29.2310000  
C 14.9640000   18.7170000   29.3970000  
C 14.2170000   18.9200000   28.2670000  
C 14.7130000   18.8650000   26.9670000  
C 16.0830000   18.3940000   26.6890000  
C 16.8280000   17.9590000   27.8000000  
C 12.8530000   19.3830000   28.1000000  
C 12.6710000   19.5500000   26.7480000  
N 13.8220000   19.1420000   26.0260000  
O 10.5960000   20.6400000   26.9290000  
C 11.5140000   20.1540000   26.0870000  
O 11.4000000   20.2360000   24.8930000  
O 18.1010000   17.4820000   27.6830000  
O 16.8390000   17.8400000   30.2690000  
H 14.4600000   18.8520000   30.3640000  
H 12.2120000   19.7060000   28.9520000  
H 10.9430000   20.4010000   27.8050000  
H 18.4660000   17.8230000   26.8950000  
C 16.5210000   18.3490000   25.2810000  
C 17.1800000   19.4870000   24.8450000  
C 17.6260000   19.5970000   23.6190000  
C 17.4440000   18.6030000   22.6180000  
C 16.8630000   17.3840000   23.0200000  
C 16.3370000   17.2990000   24.3470000  
C 17.6770000   20.6400000   25.6130000  
C 18.4040000   21.3930000   24.6580000  
N 18.4490000   20.6780000   23.4720000  
O 18.8610000   23.1660000   26.2220000  
C 19.0910000   22.6560000   24.9880000  
O 19.5230000   23.3310000   24.0490000  
O 16.7600000   16.3140000   22.1410000  
O 15.5690000   16.2490000   24.8430000  
H 17.3350000   21.0900000   26.5290000  
H 18.6590000   22.4220000   26.8080000  
H 18.7510000   21.0170000   22.6110000  
H 17.2050000   16.4860000   21.2310000  
H 15.7330000   15.4760000   24.2790000  
C 17.9770000   18.7600000   21.1680000  
C 18.9850000   17.8560000   20.6710000  
C 19.3290000   17.9100000   19.3400000  
C 18.9730000   18.8730000   18.4180000  
C 18.0290000   19.8090000   18.8770000  
C 17.5300000   19.7560000   20.2400000  
C 19.6570000   16.7010000   21.2160000  
C 20.4280000   16.1350000   20.1570000  
N 20.2900000   16.9680000   19.0090000  
O 21.2670000   14.3340000   21.3890000  
C 21.1450000   14.8390000   20.1440000  
O 21.5830000   14.3620000   19.1310000  
O 17.3300000   20.6080000   18.0090000  
O 16.5840000   20.7480000   20.6340000  
H 19.6550000   16.3420000   22.2450000  
H 20.9860000   15.0110000   22.0000000  
H 20.8350000   16.8420000   18.1660000  
H 17.6470000   20.4090000   17.1580000  
H 16.5250000   21.3480000   19.8520000  
C 19.4490000   18.9460000   16.9680000  
C 19.2980000   17.9240000   16.0500000  
C 19.7900000   18.0500000   14.7690000  
C 20.5050000   19.1140000   14.3180000  
C 20.7570000   20.1640000   15.2330000  
C 20.1940000   20.1070000   16.5740000  
C 18.5360000   16.7450000   16.1370000  
C 18.6870000   16.1220000   14.9270000  
N 19.4930000   16.9440000   14.0840000  
O 17.5460000   14.0930000   15.4510000  
C 18.1540000   14.8140000   14.5080000  
O 18.3980000   14.2960000   13.4370000  
O 21.5330000   21.2450000   14.8540000  
O 20.5170000   21.0590000   17.4490000  
H 17.9450000   16.4980000   17.0170000  
H 17.5280000   14.6260000   16.2070000  
H 19.7850000   16.6220000   13.1950000  
H 21.8230000   21.1660000   13.9500000  
H 21.0250000   21.7570000   17.0570000  
H 20.9240000   19.1260000   13.3360000  
