76
011 
C 11.2890000   21.3190000   24.7670000  
C 11.1050000   20.5980000   25.9980000  
C 12.0160000   19.6550000   26.3800000  
C 13.1180000   19.2620000   25.5780000  
C 13.3790000   20.0490000   24.3890000  
C 12.4330000   20.9420000   23.9290000  
C 11.9800000   18.7600000   27.4440000  
C 13.1520000   17.9980000   27.3570000  
N 13.8650000   18.3530000   26.1790000  
O 12.9580000   17.2250000   29.5270000  
C 13.6610000   17.1360000   28.4060000  
O 14.6700000   16.4110000   28.3860000  
O 12.5820000   21.7850000   22.8390000  
O 10.4710000   22.1540000   24.3750000  
H 10.2310000   20.8080000   26.5390000  
H 11.2160000   18.6970000   28.2540000  
H 12.5240000   18.0790000   29.4410000  
H 13.4760000   21.4990000   22.5910000  
C 14.5730000   19.8400000   23.6020000  
C 14.9460000   18.5900000   23.1330000  
C 16.1570000   18.3710000   22.5270000  
C 17.1170000   19.3450000   22.2080000  
C 16.7680000   20.6440000   22.6680000  
C 15.5740000   20.8400000   23.4430000  
C 14.1690000   17.3090000   23.0300000  
C 15.0130000   16.3870000   22.3360000  
N 16.2450000   17.0490000   22.0830000  
O 13.3690000   14.5920000   22.0210000  
C 14.6780000   15.0320000   21.8190000  
O 15.4150000   14.3150000   21.1730000  
O 17.6160000   21.6960000   22.4420000  
O 15.3390000   22.1390000   23.7900000  
H 13.0880000   17.1550000   23.2270000  
H 13.0590000   15.1300000   22.7570000  
H 17.0010000   16.6540000   21.5650000  
H 18.4650000   21.3800000   22.1790000  
H 16.1340000   22.5920000   23.4150000  
C 18.4320000   18.9310000   21.5650000  
C 18.4790000   18.2540000   20.3410000  
C 19.6600000   17.8520000   19.8660000  
C 20.8780000   18.1160000   20.4430000  
C 20.8520000   18.7650000   21.6980000  
C 19.6480000   19.1560000   22.2790000  
C 17.5100000   17.9600000   19.2970000  
C 18.1910000   17.4200000   18.2340000  
N 19.4980000   17.2740000   18.6380000  
O 16.3280000   17.2670000   16.5710000  
C 17.5990000   16.9760000   16.8850000  
O 18.2850000   16.3720000   16.0750000  
O 22.0270000   19.0890000   22.3750000  
O 19.6750000   19.7600000   23.4980000  
H 16.4780000   18.0840000   19.3550000  
H 15.8440000   17.7160000   17.3440000  
H 20.1790000   16.7540000   18.0180000  
H 22.7540000   19.1070000   21.7120000  
H 20.6320000   19.8300000   23.6420000  
C 22.0860000   17.6090000   19.7860000  
C 22.7310000   18.3520000   18.8070000  
C 23.8920000   18.0080000   18.2490000  
C 24.6650000   16.8760000   18.6350000  
C 24.0490000   16.0550000   19.5420000  
C 22.8030000   16.4110000   20.1780000  
C 22.4350000   19.6030000   18.2170000  
C 23.4210000   19.9490000   17.2950000  
N 24.4120000   18.9880000   17.4160000  
O 22.4700000   22.0090000   16.5160000  
C 23.4810000   21.1360000   16.3980000  
O 24.3870000   21.3960000   15.6310000  
O 24.5710000   14.8700000   19.9480000  
O 22.3350000   15.7330000   21.2670000  
H 21.5290000   20.1960000   18.4920000  
H 22.0110000   21.5880000   17.2480000  
H 25.2910000   18.9650000   16.9420000  
H 25.4170000   14.7990000   19.4890000  
H 21.4390000   16.1480000   21.4350000  
H 25.5650000   16.6040000   18.1130000  
