76
010 
C 11.5030000   17.2290000   27.8930000  
C 10.0730000   17.2130000   27.4740000  
C  9.7060000   17.2800000   26.2000000  
C 10.5570000   17.3690000   25.1360000  
C 11.9660000   17.3200000   25.3960000  
C 12.4570000   17.3520000   26.7350000  
C  8.4180000   17.1010000   25.5930000  
C  8.6160000   17.1620000   24.2390000  
N  9.9440000   17.4150000   23.9590000  
O  6.3570000   16.7850000   23.5900000  
C  7.6350000   17.0330000   23.1800000  
O  7.9250000   17.0900000   21.9750000  
O 13.8220000   17.3100000   27.0830000  
O 11.9010000   17.2230000   29.0400000  
H  9.3310000   17.0990000   28.1970000  
H  7.4650000   16.9740000   26.1510000  
H  6.4060000   16.7630000   24.5630000  
H 14.3250000   17.1340000   26.2670000  
C 12.8980000   17.5120000   24.3210000  
C 13.3620000   18.8100000   24.0030000  
C 14.3300000   19.0680000   23.0710000  
C 14.9080000   18.0910000   22.2610000  
C 14.5530000   16.7870000   22.5880000  
C 13.5980000   16.4520000   23.6310000  
C 13.2530000   20.0100000   24.7260000  
C 13.9470000   20.9980000   23.9870000  
N 14.6530000   20.4000000   22.9860000  
O 13.2460000   22.7410000   25.3840000  
C 14.0090000   22.4040000   24.2640000  
O 14.5750000   23.2710000   23.6350000  
O 15.0370000   15.7030000   21.8740000  
O 13.3150000   15.1330000   23.9380000  
H 12.4690000   20.2310000   25.4290000  
H 12.7660000   21.9500000   25.6670000  
H 15.1810000   20.8560000   22.2590000  
H 14.9740000   16.0100000   20.9300000  
H 13.6670000   14.5620000   23.2110000  
C 15.8380000   18.4170000   21.1220000  
C 17.3000000   18.4260000   21.2910000  
C 18.0900000   18.5200000   20.1570000  
C 17.5800000   18.7330000   18.8170000  
C 16.1960000   18.7160000   18.6460000  
C 15.3140000   18.4210000   19.7560000  
C 18.1360000   18.4220000   22.4300000  
C 19.3960000   18.4270000   21.9040000  
N 19.3760000   18.6560000   20.5310000  
O 20.5150000   18.1970000   24.1340000  
C 20.6500000   18.2890000   22.7590000  
O 21.8020000   18.2700000   22.3230000  
O 15.6930000   18.8090000   17.2910000  
O 13.9760000   18.1350000   19.5410000  
H 17.8950000   18.1880000   23.4420000  
H 19.5670000   18.4340000   24.4190000  
H 20.1850000   18.6030000   19.9990000  
H 16.5110000   19.0730000   16.8110000  
H 13.9040000   18.1560000   18.5530000  
C 18.5800000   18.8480000   17.7110000  
C 19.4630000   17.7810000   17.5030000  
C 20.3990000   17.9270000   16.4520000  
C 20.5310000   19.1380000   15.7320000  
C 19.6420000   20.2140000   15.9450000  
C 18.6500000   20.0270000   16.9090000  
C 19.7950000   16.5250000   18.1440000  
C 20.8240000   15.8910000   17.4130000  
N 21.1410000   16.7440000   16.3690000  
O 21.0650000   13.9870000   18.9380000  
C 21.4760000   14.6030000   17.8000000  
O 22.4320000   14.2880000   17.0890000  
O 19.7030000   21.3270000   15.1760000  
O 17.7920000   21.0100000   17.1630000  
H 19.3150000   16.1720000   19.0110000  
H 20.4820000   14.6540000   19.3660000  
H 21.8970000   16.6640000   15.6620000  
H 18.8940000   21.8140000   15.4070000  
H 17.1260000   20.6570000   17.7120000  
H 21.1880000   19.1640000   14.8700000  
