76
011 
C 14.5440000   12.1080000   24.6380000  
C 14.8540000   10.9870000   23.6960000  
C 15.6560000   11.2800000   22.6400000  
C 16.2710000   12.5000000   22.3280000  
C 16.0910000   13.5990000   23.1820000  
C 15.1840000   13.4350000   24.2130000  
C 16.1920000   10.3780000   21.7100000  
C 16.9410000   11.1320000   20.8290000  
N 17.0690000   12.4490000   21.2660000  
O 17.4490000    9.3560000   19.3320000  
C 17.5800000   10.6740000   19.5950000  
O 18.1700000   11.3730000   18.8780000  
O 14.8430000   14.4910000   25.0140000  
O 13.7470000   12.0090000   25.5690000  
H 14.4540000   10.0100000   23.8280000  
H 15.8990000    9.3500000   21.5930000  
H 16.7490000    8.9930000   19.8910000  
H 15.4260000   15.2490000   24.7980000  
C 16.7520000   14.9750000   22.9060000  
C 16.4620000   15.7500000   21.7880000  
C 16.9880000   17.0390000   21.6250000  
C 17.7930000   17.7720000   22.5360000  
C 18.1250000   16.9390000   23.6730000  
C 17.6690000   15.6020000   23.8420000  
C 15.8660000   15.3750000   20.5250000  
C 15.9870000   16.4640000   19.6590000  
N 16.7500000   17.4770000   20.2720000  
O 14.8480000   15.3710000   17.8120000  
C 15.4050000   16.5060000   18.2950000  
O 15.4670000   17.4090000   17.5170000  
O 18.8920000   17.4940000   24.6580000  
O 18.0100000   14.9160000   24.9510000  
H 15.3560000   14.4220000   20.3400000  
H 15.1220000   14.7780000   18.5520000  
H 16.9880000   18.3360000   19.8400000  
H 19.4630000   18.0070000   24.1120000  
H 18.5130000   15.5970000   25.4840000  
C 18.4600000   19.0440000   22.1260000  
C 17.6920000   20.1680000   21.8110000  
C 18.3350000   21.3870000   21.6080000  
C 19.6930000   21.6130000   21.5910000  
C 20.5030000   20.4190000   21.8760000  
C 19.8720000   19.1890000   22.0300000  
C 16.2610000   20.4370000   21.7240000  
C 16.1700000   21.7230000   21.3250000  
N 17.4180000   22.3060000   21.2080000  
O 13.7690000   21.8350000   21.1370000  
C 14.9370000   22.5350000   20.9490000  
O 14.9290000   23.6330000   20.4730000  
O 21.8210000   20.4480000   21.8850000  
O 20.6180000   18.0110000   22.2210000  
H 15.4420000   19.7710000   21.8910000  
H 14.1070000   21.1520000   21.6970000  
H 17.5980000   23.2760000   20.8170000  
H 22.0580000   21.3190000   21.5330000  
H 21.4910000   18.2630000   22.4950000  
C 20.2150000   22.9550000   21.2110000  
C 19.9010000   24.1580000   21.8410000  
C 20.3940000   25.3720000   21.3790000  
C 21.2210000   25.5730000   20.2240000  
C 21.6570000   24.4040000   19.6510000  
C 21.2310000   23.1310000   20.1680000  
C 18.9900000   24.4160000   22.9400000  
C 18.7550000   25.7330000   22.8790000  
N 19.7380000   26.3320000   22.0320000  
O 17.1030000   25.8820000   24.6720000  
C 17.8460000   26.5440000   23.7180000  
O 17.7810000   27.7450000   23.4520000  
O 22.5480000   24.4650000   18.6270000  
O 21.8460000   22.0370000   19.6800000  
H 18.3930000   23.6820000   23.5240000  
H 17.2340000   24.9520000   24.6050000  
H 19.8130000   27.3810000   21.8500000  
H 22.5460000   25.4340000   18.2380000  
H 22.6300000   22.2990000   19.1430000  
H 21.5370000   26.5740000   19.8430000  
