76
011 
C 16.1330000   17.2860000   28.8030000  
C 17.1530000   17.9070000   29.6270000  
C 18.2050000   18.5180000   29.0040000  
C 18.4470000   18.5630000   27.6180000  
C 17.5050000   17.9490000   26.7690000  
C 16.3300000   17.4400000   27.3270000  
C 19.1900000   19.3190000   29.6580000  
C 19.9140000   19.8640000   28.5630000  
N 19.4960000   19.3800000   27.2930000  
O 21.1930000   21.3720000   29.9560000  
C 20.9750000   20.9300000   28.7300000  
O 21.6080000   21.3300000   27.7360000  
O 15.3690000   16.9260000   26.5410000  
O 15.1050000   16.8400000   29.2370000  
H 17.0210000   17.9320000   30.6770000  
H 19.2120000   19.4730000   30.7130000  
H 20.4390000   20.9930000   30.4260000  
H 15.5920000   17.0830000   25.6180000  
C 17.6630000   18.1140000   25.3520000  
C 18.3640000   17.1380000   24.6490000  
C 18.4280000   17.2390000   23.3000000  
C 17.9550000   18.3570000   22.5390000  
C 17.4210000   19.4170000   23.3300000  
C 17.2260000   19.3010000   24.7120000  
C 18.8610000   15.8580000   25.0590000  
C 19.3170000   15.2330000   23.9110000  
N 19.0830000   16.0750000   22.8560000  
O 20.0540000   13.2020000   24.8950000  
C 19.9740000   13.9480000   23.7780000  
O 20.4840000   13.4970000   22.7610000  
O 17.0970000   20.5260000   22.6760000  
O 16.6330000   20.3160000   25.4280000  
H 19.0760000   15.5550000   26.0960000  
H 19.6650000   13.6790000   25.6240000  
H 19.0940000   15.7760000   21.9160000  
H 17.1010000   20.3340000   21.7210000  
H 16.6620000   21.0920000   24.7910000  
C 17.9930000   18.2940000   21.0040000  
C 16.8770000   18.2770000   20.1880000  
C 16.8960000   18.3360000   18.8730000  
C 18.1140000   18.4000000   18.1260000  
C 19.3240000   18.4440000   18.8760000  
C 19.2050000   18.3140000   20.2660000  
C 15.4600000   18.3070000   20.5930000  
C 14.7230000   18.4540000   19.4000000  
N 15.6310000   18.3090000   18.3370000  
O 12.4940000   18.8690000   20.1780000  
C 13.2940000   18.5680000   19.1000000  
O 12.8720000   18.4200000   17.9810000  
O 20.5260000   18.7000000   18.3520000  
O 20.3460000   18.3250000   21.0210000  
H 15.1140000   18.4160000   21.6190000  
H 13.1900000   19.0180000   20.8370000  
H 15.3420000   18.1870000   17.4610000  
H 20.5200000   18.6790000   17.3630000  
H 21.0500000   18.4140000   20.3410000  
C 18.0240000   18.5440000   16.6710000  
C 17.4200000   19.6320000   15.9960000  
C 17.2690000   19.6300000   14.6760000  
C 17.6710000   18.5960000   13.8190000  
C 18.2680000   17.5070000   14.3930000  
C 18.5350000   17.4780000   15.7850000  
C 16.8390000   20.8880000   16.4580000  
C 16.3350000   21.6130000   15.3380000  
N 16.5660000   20.7590000   14.2410000  
O 15.2240000   23.4680000   16.5150000  
C 15.5940000   22.8850000   15.3700000  
O 15.3510000   23.4650000   14.3040000  
O 18.5970000   16.3860000   13.6530000  
O 19.2650000   16.4660000   16.3460000  
H 16.7520000   21.2640000   17.5090000  
H 15.6360000   23.0100000   17.2740000  
H 16.1050000   20.7790000   13.3870000  
H 18.3820000   16.5240000   12.6440000  
H 19.4140000   15.7940000   15.6630000  
H 17.3660000   18.5590000   12.7690000  
