76
011 
C 22.8720000   15.4710000   25.6130000  
C 22.4570000   14.0680000   25.9850000  
C 21.2480000   13.5730000   25.6430000  
C 20.3160000   14.3120000   24.9260000  
C 20.5640000   15.6430000   24.5740000  
C 21.8240000   16.1790000   24.8650000  
C 20.7370000   12.2330000   25.7340000  
C 19.5630000   12.2330000   25.0490000  
N 19.2650000   13.5170000   24.5250000  
O 19.2590000    9.8220000   25.1910000  
C 18.7040000   11.0200000   24.7450000  
O 17.5930000   11.0630000   24.2420000  
O 22.1110000   17.4170000   24.4460000  
O 23.9680000   15.9290000   25.8810000  
H 23.1820000   13.4860000   26.5440000  
H 21.3680000   11.3920000   25.9620000  
H 20.0480000   10.0680000   25.7350000  
H 21.2960000   17.7280000   24.0520000  
C 19.6400000   16.2390000   23.6880000  
C 18.6230000   17.0440000   24.2430000  
C 17.6830000   17.7180000   23.5440000  
C 17.6530000   17.6110000   22.1310000  
C 18.6310000   16.7290000   21.5710000  
C 19.6540000   16.0540000   22.2880000  
C 18.4180000   17.4740000   25.6480000  
C 17.3490000   18.3910000   25.6200000  
N 16.8580000   18.5200000   24.3510000  
O 17.6870000   19.0350000   27.9030000  
C 16.9360000   19.0840000   26.8040000  
O 15.9770000   19.8070000   26.7280000  
O 18.8030000   16.7910000   20.2060000  
O 20.6730000   15.4190000   21.6390000  
H 18.9940000   17.0670000   26.4810000  
H 18.3390000   18.3300000   27.6760000  
H 16.3700000   19.2930000   24.0420000  
H 18.3360000   17.5670000   19.8700000  
H 20.6390000   15.7320000   20.6890000  
C 16.7900000   18.5660000   21.3720000  
C 17.0400000   19.9450000   21.3780000  
C 16.3970000   20.7350000   20.5010000  
C 15.3920000   20.2520000   19.5570000  
C 15.1170000   18.9240000   19.5650000  
C 15.8950000   18.0710000   20.3720000  
C 17.8810000   20.8870000   22.1150000  
C 17.7110000   22.1750000   21.6250000  
N 16.6850000   22.0520000   20.6380000  
O 19.2630000   23.3870000   22.9640000  
C 18.3790000   23.4050000   21.9580000  
O 18.0650000   24.4280000   21.3510000  
O 14.2430000   18.4080000   18.6240000  
O 15.9260000   16.7070000   19.9290000  
H 18.6070000   20.5870000   22.9120000  
H 19.4380000   22.4520000   23.1250000  
H 16.2820000   22.8020000   20.1870000  
H 13.8880000   19.0960000   18.0410000  
H 15.3490000   16.6300000   19.1490000  
C 14.6930000   21.2350000   18.7120000  
C 15.2270000   21.6390000   17.5110000  
C 14.5500000   22.5790000   16.6910000  
C 13.4110000   23.2580000   17.1130000  
C 12.9140000   22.9610000   18.4160000  
C 13.4620000   21.8820000   19.1550000  
C 16.3580000   21.2800000   16.8260000  
C 16.3540000   21.9130000   15.6190000  
N 15.3020000   22.8630000   15.5780000  
O 18.5300000   21.2940000   15.0050000  
C 17.4350000   21.8760000   14.5940000  
O 17.3660000   22.3480000   13.4930000  
O 11.8580000   23.6420000   18.9450000  
O 12.7270000   21.4690000   20.2250000  
H 17.1340000   20.6140000   17.1290000  
H 18.2060000   20.7960000   15.7490000  
H 15.0900000   23.5580000   14.8360000  
H 11.7200000   24.3970000   18.4520000  
H 11.8600000   21.8240000   20.0400000  
H 12.9230000   24.0270000   16.5250000  
