76
011 
C 21.3630000   12.3400000   19.7670000  
C 20.5250000   11.1820000   20.2740000  
C 19.3260000   11.4090000   20.8440000  
C 18.7240000   12.6390000   21.0450000  
C 19.4410000   13.8220000   20.6300000  
C 20.6650000   13.6990000   20.0340000  
C 18.3110000   10.5190000   21.2540000  
C 17.3230000   11.3040000   21.7640000  
N 17.5390000   12.6870000   21.5950000  
O 15.7870000    9.4190000   22.2520000  
C 16.0530000   10.7720000   22.2960000  
O 15.1320000   11.4790000   22.7480000  
O 21.2320000   14.7220000   19.4430000  
O 22.3840000   12.1800000   19.0970000  
H 20.8470000   10.1930000   20.0470000  
H 18.2950000    9.4380000   21.0190000  
H 16.6410000    9.1130000   21.8840000  
H 21.1180000   15.4340000   20.1310000  
C 18.7420000   15.1120000   20.7400000  
C 18.4350000   15.6200000   22.0200000  
C 17.8840000   16.8810000   22.1810000  
C 17.5110000   17.7420000   21.1580000  
C 17.7480000   17.1900000   19.8670000  
C 18.3790000   15.9530000   19.6690000  
C 18.7660000   15.1130000   23.3630000  
C 18.2320000   16.0370000   24.2710000  
N 17.7190000   17.1080000   23.5300000  
O 18.9840000   14.9360000   26.2090000  
C 18.1190000   15.8760000   25.7370000  
O 17.4650000   16.6020000   26.4810000  
O 17.3870000   17.9170000   18.7640000  
O 18.6290000   15.4810000   18.4140000  
H 18.9990000   14.1430000   23.6610000  
H 19.4450000   14.6520000   25.4070000  
H 17.3430000   18.0120000   23.8970000  
H 16.6890000   18.5140000   19.0470000  
H 18.1000000   16.0040000   17.8380000  
C 17.0080000   19.1490000   21.3750000  
C 17.7390000   20.0560000   22.1560000  
C 17.2070000   21.3280000   22.3630000  
C 15.9450000   21.8200000   21.8940000  
C 15.2350000   20.8410000   21.1500000  
C 15.7810000   19.5650000   20.8110000  
C 19.0350000   20.0520000   22.7750000  
C 19.2330000   21.3060000   23.3690000  
N 18.1220000   22.1060000   23.0560000  
O 21.4890000   21.0950000   23.8590000  
C 20.4030000   21.8800000   24.0160000  
O 20.4240000   22.9490000   24.5890000  
O 14.0210000   21.1550000   20.5830000  
O 15.0360000   18.8060000   19.9690000  
H 19.7290000   19.1990000   22.7770000  
H 21.1750000   20.3690000   23.3640000  
H 17.8840000   23.0050000   23.3630000  
H 13.9780000   22.1910000   20.6410000  
H 14.2660000   19.3220000   19.6880000  
C 15.5080000   23.1760000   22.1060000  
C 16.1310000   24.1700000   21.2600000  
C 15.7500000   25.4460000   21.4010000  
C 14.8190000   25.8550000   22.3700000  
C 14.1250000   24.8950000   23.1340000  
C 14.4780000   23.5370000   23.0260000  
C 17.2100000   24.0790000   20.2630000  
C 17.4710000   25.4210000   19.9680000  
N 16.5800000   26.2330000   20.6340000  
O 19.3030000   25.0100000   18.5140000  
C 18.5170000   25.9040000   19.1500000  
O 18.6570000   27.1020000   19.0840000  
O 13.1600000   25.2030000   24.0720000  
O 13.9040000   22.6020000   23.8150000  
H 17.7810000   23.2860000   19.9410000  
H 18.8670000   24.2160000   18.7290000  
H 16.6670000   27.2660000   20.6920000  
H 12.4400000   24.5580000   24.1210000  
H 14.1880000   21.7040000   23.4820000  
H 14.4240000   26.8710000   22.4810000  
