76
011 
C 17.3050000   22.1670000   27.9670000  
C 16.3790000   21.5250000   28.9160000  
C 15.7740000   20.3310000   28.5250000  
C 16.0130000   19.7100000   27.2780000  
C 16.9660000   20.2640000   26.2930000  
C 17.5800000   21.4070000   26.6930000  
C 14.7730000   19.5340000   29.1130000  
C 14.6180000   18.4230000   28.2830000  
N 15.4170000   18.5410000   27.1200000  
O 13.3230000   17.1450000   29.8350000  
C 13.7880000   17.2170000   28.5990000  
O 13.5210000   16.3710000   27.7980000  
O 18.5390000   22.0240000   26.0110000  
O 17.7860000   23.2780000   28.2130000  
H 16.2180000   22.0040000   29.8470000  
H 14.1540000   19.7150000   30.0170000  
H 13.7740000   17.9360000   30.2060000  
H 18.9600000   21.3470000   25.4270000  
C 17.2980000   19.6700000   25.0070000  
C 16.1910000   19.6260000   24.1330000  
C 16.3600000   19.1290000   22.8840000  
C 17.5340000   18.5310000   22.3840000  
C 18.6530000   18.6460000   23.2420000  
C 18.5650000   19.2460000   24.5460000  
C 14.7900000   19.9060000   24.3220000  
C 14.1760000   19.5200000   23.1570000  
N 15.1540000   19.0720000   22.2520000  
O 11.9660000   19.7900000   23.9610000  
C 12.7270000   19.4160000   22.9260000  
O 12.2730000   19.0730000   21.8800000  
O 19.8330000   18.0230000   22.9440000  
O 19.6510000   19.2280000   25.4030000  
H 14.2920000   20.2040000   25.2900000  
H 12.4880000   20.1140000   24.6780000  
H 14.9040000   18.6040000   21.3310000  
H 19.6370000   17.6400000   22.1140000  
H 20.3690000   18.7270000   24.9860000  
C 17.7420000   18.1580000   20.9980000  
C 17.9510000   19.0770000   19.9550000  
C 18.1680000   18.7170000   18.6330000  
C 18.3630000   17.3740000   18.2410000  
C 18.1900000   16.3380000   19.3280000  
C 17.9260000   16.7570000   20.6730000  
C 17.9330000   20.4820000   19.9420000  
C 18.1730000   20.9440000   18.6900000  
N 18.3720000   19.8520000   17.8090000  
O 18.0740000   23.2400000   19.4260000  
C 18.3830000   22.4340000   18.4130000  
O 18.7220000   22.8530000   17.3040000  
O 18.3420000   14.9880000   19.0600000  
O 17.8760000   15.8170000   21.6140000  
H 17.8500000   21.1350000   20.8010000  
H 17.8700000   22.6910000   20.1630000  
H 18.7860000   19.9180000   16.9090000  
H 18.7040000   14.9740000   18.1390000  
H 17.8620000   15.0190000   21.0360000  
C 18.9450000   17.0130000   16.9460000  
C 20.2230000   16.4040000   16.8490000  
C 20.7020000   16.0050000   15.6580000  
C 20.0230000   16.1690000   14.4540000  
C 18.7970000   16.7770000   14.4780000  
C 18.2310000   17.1570000   15.7490000  
C 21.1000000   15.8700000   17.8460000  
C 22.1050000   15.2170000   17.1340000  
N 21.8250000   15.3010000   15.7470000  
O 23.3470000   14.7570000   18.9800000  
C 23.3730000   14.8240000   17.6620000  
O 24.3780000   14.5510000   16.9760000  
O 18.1110000   17.1350000   13.3050000  
O 16.9710000   17.5430000   15.8530000  
H 21.0110000   16.0270000   18.9080000  
H 22.5080000   15.0680000   19.2400000  
H 22.4050000   14.9630000   14.9730000  
H 18.6540000   16.9280000   12.5100000  
H 16.8510000   17.6960000   16.8270000  
H 20.5440000   15.9400000   13.5090000  
