76
011 
C 14.7280000   11.8850000   21.4360000  
C 15.3370000   11.1110000   22.5650000  
C 16.4090000   11.6000000   23.2500000  
C 16.9740000   12.8400000   23.0050000  
C 16.3750000   13.6410000   22.0050000  
C 15.3750000   13.1690000   21.1380000  
C 17.1910000   11.0910000   24.2330000  
C 18.1550000   12.0530000   24.6020000  
N 18.0000000   13.2000000   23.7820000  
O 18.9250000   10.8760000   26.4890000  
C 19.0600000   11.9620000   25.7400000  
O 19.7860000   12.9010000   26.0350000  
O 14.8480000   14.0390000   20.2630000  
O 13.7700000   11.5110000   20.8180000  
H 14.8960000   10.1430000   22.7630000  
H 16.9620000   10.1630000   24.6650000  
H 18.1860000   10.3720000   26.0990000  
H 15.6590000   14.5580000   20.0700000  
C 16.7760000   15.0420000   21.9590000  
C 18.0790000   15.3590000   21.5270000  
C 18.4900000   16.6300000   21.5630000  
C 17.7530000   17.7680000   21.9220000  
C 16.4550000   17.4810000   22.4470000  
C 15.9570000   16.1760000   22.4760000  
C 19.1030000   14.4970000   21.0320000  
C 20.0980000   15.3790000   20.5950000  
N 19.8110000   16.6780000   21.0710000  
O 21.5150000   13.6430000   19.7930000  
C 21.4240000   14.9570000   20.0060000  
O 22.3340000   15.7380000   19.8340000  
O 15.6060000   18.5590000   22.5870000  
O 14.6830000   15.9790000   22.8840000  
H 19.0500000   13.5010000   20.7020000  
H 20.6950000   13.3360000   20.0690000  
H 20.3440000   17.5180000   20.9390000  
H 15.8630000   19.2150000   21.9480000  
H 14.2410000   16.8140000   23.0220000  
C 18.2510000   19.1450000   21.6850000  
C 17.4280000   19.9730000   20.8910000  
C 17.7100000   21.2880000   20.6850000  
C 18.8510000   21.9610000   21.2170000  
C 19.7380000   21.1440000   21.9580000  
C 19.4510000   19.7360000   22.2100000  
C 16.2780000   19.6790000   20.0890000  
C 15.7970000   20.9200000   19.6090000  
N 16.7070000   21.8990000   19.9250000  
O 13.9310000   19.9690000   18.3550000  
C 14.7170000   21.0110000   18.6180000  
O 14.4270000   22.0430000   18.0010000  
O 20.8670000   21.7340000   22.5030000  
O 20.4020000   18.9900000   22.8610000  
H 15.7710000   18.8060000   19.9180000  
H 14.3130000   19.2220000   18.8350000  
H 16.7590000   22.7960000   19.5470000  
H 20.6930000   22.7190000   22.4710000  
H 20.9680000   19.6930000   23.3010000  
C 18.9700000   23.4270000   21.0100000  
C 18.0860000   24.3350000   21.5810000  
C 18.1270000   25.6670000   21.3710000  
C 19.0500000   26.2340000   20.5230000  
C 19.9330000   25.3380000   19.8710000  
C 19.8970000   23.9840000   20.1280000  
C 17.0890000   24.1120000   22.5860000  
C 16.5230000   25.3790000   22.9050000  
N 17.1190000   26.3070000   22.0770000  
O 15.0400000   24.6410000   24.6890000  
C 15.4820000   25.6540000   23.9270000  
O 14.9530000   26.7750000   23.9750000  
O 20.7620000   25.8940000   18.8860000  
O 20.8010000   23.2260000   19.4710000  
H 16.8050000   23.1640000   23.0860000  
H 15.5730000   23.9610000   24.3650000  
H 17.0030000   27.3180000   22.1660000  
H 20.8460000   26.8200000   19.0050000  
H 21.4850000   23.7900000   19.0670000  
H 18.9790000   27.2710000   20.3140000  
