76
011 
C 14.5950000   22.5060000   27.6880000  
C 14.3680000   21.4630000   28.7390000  
C 14.5410000   20.1340000   28.3770000  
C 15.0230000   19.7800000   27.0880000  
C 15.3770000   20.7610000   26.1060000  
C 15.1120000   22.0630000   26.3350000  
C 14.6750000   18.9660000   29.1380000  
C 15.1220000   17.9800000   28.3190000  
N 15.3330000   18.4520000   27.0180000  
O 15.3700000   16.3220000   30.0400000  
C 15.4280000   16.6030000   28.7280000  
O 15.6780000   15.7140000   27.9600000  
O 15.3070000   22.9820000   25.3680000  
O 14.4600000   23.7510000   27.9330000  
H 13.9260000   21.8350000   29.6610000  
H 14.4640000   18.8980000   30.2300000  
H 15.2650000   17.2220000   30.5010000  
H 16.1090000   22.7260000   24.8450000  
C 16.0950000   20.3630000   24.8560000  
C 15.4280000   19.5670000   23.8640000  
C 16.0780000   19.1340000   22.7340000  
C 17.4750000   19.3740000   22.4470000  
C 18.0230000   20.3890000   23.3670000  
C 17.4200000   20.7800000   24.5720000  
C 14.0700000   19.0090000   23.8330000  
C 14.0100000   18.2270000   22.6800000  
N 15.2990000   18.2080000   22.0590000  
O 11.6930000   17.4350000   22.9340000  
C 12.8800000   17.4100000   22.1840000  
O 12.9320000   16.7920000   21.1520000  
O 19.3790000   20.6840000   23.1560000  
O 18.1810000   21.4480000   25.4920000  
H 13.3130000   19.0400000   24.6690000  
H 11.9750000   17.9270000   23.6950000  
H 15.6320000   17.6480000   21.2460000  
H 19.7010000   20.3430000   22.2890000  
H 19.0750000   21.6910000   25.1140000  
C 18.1530000   18.7660000   21.2180000  
C 18.6040000   19.5000000   20.1140000  
C 19.1980000   18.8790000   19.0380000  
C 19.2150000   17.4620000   18.8010000  
C 18.9310000   16.7480000   19.9140000  
C 18.4330000   17.4050000   21.1210000  
C 18.5860000   20.9320000   19.8360000  
C 19.0790000   20.9960000   18.5070000  
N 19.3230000   19.7480000   17.9920000  
O 18.6780000   23.2370000   18.2930000  
C 19.3330000   22.1590000   17.7190000  
O 19.9070000   22.2230000   16.6630000  
O 19.1020000   15.4130000   19.9470000  
O 18.2530000   16.5850000   22.2260000  
H 18.4260000   21.7570000   20.5010000  
H 18.2120000   22.8270000   19.0360000  
H 19.7100000   19.5670000   17.1130000  
H 19.3180000   15.1530000   19.0300000  
H 18.0020000   15.6920000   21.9680000  
C 19.4770000   16.7910000   17.4830000  
C 20.7000000   16.1340000   17.2350000  
C 20.9370000   15.5740000   15.9550000  
C 20.0150000   15.5550000   14.9430000  
C 18.7480000   16.1820000   15.1610000  
C 18.5290000   16.8520000   16.3920000  
C 21.9130000   15.9800000   18.0650000  
C 22.8740000   15.4450000   17.1500000  
N 22.2680000   15.1470000   15.9320000  
O 24.6400000   15.2080000   18.8010000  
C 24.3090000   15.0280000   17.5080000  
O 25.0620000   14.5360000   16.7160000  
O 17.7900000   16.2680000   14.2090000  
O 17.3520000   17.5620000   16.5370000  
H 22.1200000   16.3640000   19.0530000  
H 23.9320000   15.5900000   19.2360000  
H 22.7060000   14.7240000   15.0970000  
H 17.9660000   15.5320000   13.5730000  
H 17.0470000   17.7400000   17.4270000  
H 20.2840000   14.8360000   14.1500000  
