76
011 
C 10.8840000   17.8140000   25.2740000  
C 10.2450000   16.7550000   24.4570000  
C 10.8850000   16.2370000   23.3430000  
C 12.0840000   16.7610000   22.9590000  
C 12.8340000   17.7300000   23.7120000  
C 12.1930000   18.2650000   24.8070000  
C 10.4670000   15.3510000   22.2620000  
C 11.4610000   15.4830000   21.3910000  
N 12.5340000   16.2650000   21.8070000  
O 10.6100000   13.7260000   19.8770000  
C 11.6190000   14.6190000   20.1760000  
O 12.6150000   14.6020000   19.4130000  
O 12.8310000   19.1940000   25.5660000  
O 10.2800000   18.3020000   26.2270000  
H  9.2450000   16.4500000   24.7050000  
H  9.6010000   14.6740000   22.2470000  
H  9.9620000   13.6390000   20.6750000  
H 13.6700000   19.4710000   25.1730000  
C 14.2240000   17.9930000   23.3580000  
C 14.5320000   18.8930000   22.3170000  
C 15.7780000   19.0220000   21.8850000  
C 16.9130000   18.5620000   22.5660000  
C 16.6530000   17.8180000   23.7560000  
C 15.3360000   17.4710000   24.1160000  
C 13.6670000   19.4110000   21.2800000  
C 14.5200000   19.8160000   20.2720000  
N 15.7930000   19.6100000   20.6800000  
O 12.6990000   20.3240000   18.7880000  
C 14.0800000   20.2300000   18.9750000  
O 14.8820000   20.4210000   18.0360000  
O 17.6860000   17.2540000   24.4350000  
O 15.1610000   16.5620000   25.1140000  
H 12.5710000   19.3110000   21.4020000  
H 12.2940000   20.1730000   19.6510000  
H 16.5050000   19.4860000   20.0160000  
H 18.4150000   17.0980000   23.8820000  
H 16.0540000   16.5110000   25.6000000  
C 18.3210000   18.7130000   22.0250000  
C 18.9640000   19.9960000   22.0360000  
C 20.2380000   20.0610000   21.5130000  
C 21.0350000   19.0020000   21.0330000  
C 20.4400000   17.7050000   21.1450000  
C 19.0880000   17.5650000   21.6370000  
C 18.6740000   21.3150000   22.4860000  
C 19.7850000   22.1490000   22.2480000  
N 20.7270000   21.3920000   21.5820000  
O 18.8370000   24.0800000   23.1960000  
C 19.8810000   23.5420000   22.5560000  
O 20.8360000   24.1810000   22.2590000  
O 21.0850000   16.6010000   20.6640000  
O 18.5320000   16.3440000   21.6300000  
H 17.7730000   21.5940000   22.9740000  
H 18.1960000   23.4730000   23.2350000  
H 21.6610000   21.6640000   21.3260000  
H 21.8970000   16.9610000   20.2330000  
H 19.0820000   15.8610000   21.0060000  
C 22.2840000   19.2770000   20.2320000  
C 23.5060000   18.6740000   20.5810000  
C 24.6090000   18.6710000   19.7740000  
C 24.6040000   19.3330000   18.5670000  
C 23.4070000   20.0120000   18.1660000  
C 22.2690000   20.0000000   19.0300000  
C 23.8400000   17.8850000   21.7630000  
C 25.1620000   17.6110000   21.5820000  
N 25.6400000   17.9730000   20.3400000  
O 25.3240000   16.5860000   23.7340000  
C 25.9680000   16.8490000   22.5630000  
O 27.0930000   16.4970000   22.3720000  
O 23.5500000   20.8020000   17.0450000  
O 21.1520000   20.4960000   18.5970000  
H 23.2330000   17.7140000   22.6480000  
H 24.4860000   16.9900000   23.7310000  
H 26.5710000   18.0050000   20.0340000  
H 22.7190000   21.2440000   16.8290000  
H 20.5310000   20.5010000   19.3820000  
H 25.5110000   19.4050000   17.9760000  
