76
011 
C 19.6150000   11.3660000   20.3510000  
C 19.9740000   10.8130000   21.6530000  
C 19.9330000   11.5880000   22.7140000  
C 19.5630000   12.9590000   22.7430000  
C 19.0880000   13.5690000   21.5550000  
C 19.1220000   12.8290000   20.3460000  
C 20.3720000   11.3270000   24.0540000  
C 20.2350000   12.5470000   24.7380000  
N 19.7420000   13.5370000   23.9080000  
O 20.7930000   11.6290000   26.9090000  
C 20.4190000   12.7660000   26.2730000  
O 20.3660000   13.8770000   26.8040000  
O 18.6390000   13.2820000   19.1790000  
O 19.7110000   10.7440000   19.3060000  
H 20.3900000    9.7790000   21.7600000  
H 20.6420000   10.3800000   24.4820000  
H 20.6630000   10.8820000   26.2860000  
H 18.0960000   14.0260000   19.3650000  
C 18.7790000   15.0370000   21.6260000  
C 19.6560000   16.1130000   21.9140000  
C 19.2430000   17.4060000   21.8910000  
C 17.9160000   17.7950000   21.6830000  
C 16.9890000   16.8160000   21.3410000  
C 17.4200000   15.4170000   21.3350000  
C 21.0770000   16.1040000   22.1960000  
C 21.4360000   17.4650000   22.2330000  
N 20.2570000   18.2570000   22.0450000  
O 23.6730000   17.0780000   22.8370000  
C 22.7920000   18.0480000   22.4680000  
O 23.1110000   19.2130000   22.3540000  
O 15.7000000   17.1000000   21.0580000  
O 16.4680000   14.4710000   21.0280000  
H 21.7340000   15.2830000   22.2930000  
H 23.2950000   16.1450000   22.8220000  
H 20.1850000   19.2790000   21.9930000  
H 15.7100000   18.0180000   20.9700000  
H 16.8500000   13.6040000   21.3910000  
C 17.4480000   19.2210000   21.7390000  
C 17.5140000   20.0810000   20.5890000  
C 16.9920000   21.3130000   20.7290000  
C 16.4540000   21.9000000   21.9290000  
C 16.2450000   21.0420000   23.0020000  
C 16.7190000   19.6850000   22.9100000  
C 18.0540000   20.0320000   19.2400000  
C 17.7610000   21.2060000   18.6050000  
N 17.0520000   21.9850000   19.5690000  
O 18.8920000   20.6720000   16.4570000  
C 18.2090000   21.5730000   17.2300000  
O 17.9920000   22.6380000   16.7620000  
O 15.7910000   21.6440000   24.1870000  
O 16.5970000   18.9030000   24.0360000  
H 18.4560000   19.1630000   18.7200000  
H 18.8890000   19.8430000   17.0190000  
H 16.7440000   22.9260000   19.3260000  
H 15.3660000   22.5190000   23.9280000  
H 16.9670000   18.0130000   23.7970000  
C 15.8640000   23.2470000   21.9080000  
C 14.4690000   23.4230000   21.8210000  
C 13.8360000   24.6650000   21.7440000  
C 14.5560000   25.8440000   21.8400000  
C 15.9660000   25.7270000   22.0180000  
C 16.6170000   24.4560000   22.0620000  
C 13.4520000   22.4330000   21.7310000  
C 12.2980000   23.1310000   21.4190000  
N 12.5110000   24.4920000   21.6150000  
O 10.8390000   21.2700000   21.2850000  
C 10.9680000   22.5700000   21.0370000  
O 10.0020000   23.2130000   20.6180000  
O 16.7510000   26.8200000   21.9700000  
O 17.9440000   24.3200000   22.0720000  
H 13.6940000   21.3460000   21.4050000  
H 11.5620000   21.0230000   21.9040000  
H 11.8600000   25.2100000   21.3200000  
H 17.6260000   26.5210000   21.6780000  
H 18.2830000   23.4450000   21.9740000  
H 14.1180000   26.8260000   21.6750000  
