76
011 
C 19.0750000   23.4150000   27.0950000  
C 19.7140000   22.7860000   28.2920000  
C 19.8380000   21.4280000   28.2560000  
C 19.3430000   20.5720000   27.2220000  
C 18.7680000   21.1150000   26.0720000  
C 18.7360000   22.4630000   26.0060000  
C 20.4860000   20.5780000   29.1450000  
C 20.4100000   19.3250000   28.5450000  
N 19.7000000   19.3390000   27.3490000  
O 21.6370000   18.1960000   30.2520000  
C 21.0670000   18.1040000   29.0420000  
O 20.9030000   16.9860000   28.5590000  
O 18.2360000   23.0670000   24.9540000  
O 18.9460000   24.6410000   26.9940000  
H 20.0400000   23.3910000   29.1350000  
H 21.0430000   20.8490000   30.0730000  
H 21.4530000   19.0470000   30.6500000  
H 17.8180000   22.4080000   24.3510000  
C 18.4050000   20.2480000   24.9690000  
C 17.0950000   19.7440000   24.7200000  
C 16.7930000   19.0210000   23.5590000  
C 17.7720000   18.7330000   22.6380000  
C 19.0810000   19.2540000   22.8320000  
C 19.3810000   20.0080000   23.9980000  
C 15.8100000   19.8800000   25.3770000  
C 14.8570000   19.1010000   24.6250000  
N 15.4960000   18.6310000   23.4530000  
O 13.0630000   19.3090000   26.1040000  
C 13.4650000   18.7960000   24.9610000  
O 12.7770000   18.0140000   24.3150000  
O 20.0760000   19.0210000   21.9150000  
O 20.6210000   20.5920000   24.0500000  
H 15.5690000   20.3920000   26.3790000  
H 13.6940000   20.0090000   26.4250000  
H 15.1100000   18.1970000   22.5920000  
H 19.6970000   18.7200000   21.1080000  
H 21.1570000   20.1950000   23.4450000  
C 17.4670000   17.9480000   21.4070000  
C 17.6220000   18.5510000   20.1100000  
C 17.1850000   17.8730000   19.0250000  
C 16.6010000   16.6200000   19.0020000  
C 16.5410000   15.9820000   20.2480000  
C 16.8980000   16.6380000   21.4650000  
C 18.2000000   19.8100000   19.6700000  
C 18.1560000   19.7550000   18.2600000  
N 17.4780000   18.5860000   17.8610000  
O 19.2300000   21.8430000   17.8310000  
C 18.5870000   20.7760000   17.2720000  
O 18.3950000   20.5940000   16.0680000  
O 15.9210000   14.8010000   20.2920000  
O 16.8190000   15.9320000   22.6100000  
H 18.6190000   20.5950000   20.3020000  
H 19.3640000   21.5940000   18.7430000  
H 17.3800000   18.3190000   16.9210000  
H 16.2800000   14.3000000   19.5210000  
H 17.0980000   16.4310000   23.3890000  
C 16.0340000   16.1590000   17.7240000  
C 16.7310000   15.8970000   16.5320000  
C 16.1780000   15.5560000   15.3150000  
C 14.8420000   15.3310000   15.2040000  
C 14.0660000   15.4420000   16.3690000  
C 14.6480000   15.9930000   17.5690000  
C 18.1410000   16.1410000   16.2360000  
C 18.3980000   15.8020000   14.8860000  
N 17.1830000   15.4330000   14.3200000  
O 20.6740000   16.2180000   14.9180000  
C 19.6880000   15.6230000   14.2810000  
O 19.8860000   15.2930000   13.0450000  
O 12.7280000   15.1550000   16.2840000  
O 13.8050000   16.2860000   18.6370000  
H 18.9500000   16.4160000   16.9400000  
H 20.1560000   16.5010000   15.7100000  
H 16.9890000   15.1110000   13.3710000  
H 12.2470000   15.5210000   17.0700000  
H 14.4420000   16.4910000   19.3330000  
H 14.4090000   15.0900000   14.2490000  
