76
011 
C 20.0940000   21.9990000   27.7470000  
C 19.1890000   21.7370000   28.8950000  
C 18.2220000   20.7630000   28.8520000  
C 17.9690000   20.1400000   27.6370000  
C 18.7130000   20.4190000   26.4350000  
C 19.7260000   21.3640000   26.4420000  
C 17.2930000   20.3000000   29.7720000  
C 16.4990000   19.4010000   29.0270000  
N 17.0180000   19.2620000   27.7540000  
O 14.8830000   19.2130000   30.6650000  
C 15.2270000   18.7970000   29.4410000  
O 14.6200000   17.9470000   28.7760000  
O 20.5040000   21.7340000   25.4050000  
O 21.0240000   22.7930000   27.8140000  
H 19.5020000   22.1670000   29.8450000  
H 17.1680000   20.6700000   30.7430000  
H 15.5440000   19.9300000   30.8950000  
H 20.8050000   22.6020000   25.6140000  
C 18.4250000   19.7790000   25.1380000  
C 17.1250000   19.8890000   24.4760000  
C 16.9730000   19.4890000   23.2300000  
C 17.9040000   18.8250000   22.4840000  
C 19.1030000   18.5850000   23.1010000  
C 19.3710000   19.0370000   24.4040000  
C 15.8100000   20.3310000   24.9190000  
C 14.9050000   20.0830000   23.9270000  
N 15.6750000   19.7070000   22.8230000  
O 12.9620000   20.6890000   25.1470000  
C 13.4510000   20.2960000   23.9570000  
O 12.7310000   20.0980000   22.9940000  
O 20.0140000   17.8250000   22.4640000  
O 20.6850000   18.7570000   24.9140000  
H 15.5890000   20.9160000   25.7590000  
H 13.7130000   20.7360000   25.6860000  
H 15.2090000   19.3230000   21.9470000  
H 19.5330000   17.6230000   21.6460000  
H 21.0610000   18.2190000   24.1450000  
C 17.5640000   18.3090000   21.0760000  
C 18.1130000   18.9370000   19.9410000  
C 17.8030000   18.4740000   18.6940000  
C 17.0740000   17.3450000   18.4240000  
C 16.4730000   16.6870000   19.5300000  
C 16.7220000   17.1660000   20.8640000  
C 19.0920000   19.9940000   19.7400000  
C 19.3060000   20.1550000   18.3980000  
N 18.3960000   19.2690000   17.7150000  
O 20.9380000   21.7830000   18.6000000  
C 20.3330000   20.9530000   17.8150000  
O 20.5920000   20.9460000   16.6190000  
O 15.8240000   15.4790000   19.4300000  
O 16.1730000   16.4900000   21.9290000  
H 19.6290000   20.5490000   20.5050000  
H 20.6650000   21.5620000   19.5080000  
H 18.1490000   19.2680000   16.7390000  
H 15.9460000   15.3060000   18.5210000  
H 15.9850000   15.5780000   21.6580000  
C 16.9100000   16.8830000   17.0100000  
C 17.6240000   15.7730000   16.4810000  
C 17.6480000   15.4180000   15.1260000  
C 16.7490000   16.0170000   14.2400000  
C 15.9990000   17.0620000   14.7630000  
C 16.0770000   17.5480000   16.0700000  
C 18.6370000   14.9030000   17.0500000  
C 19.1170000   14.1290000   15.9850000  
N 18.4820000   14.4190000   14.8120000  
O 20.7690000   12.9810000   17.3060000  
C 20.2200000   13.1120000   16.0810000  
O 20.5640000   12.4560000   15.1000000  
O 15.1830000   17.8100000   13.8740000  
O 15.3620000   18.6250000   16.3560000  
H 18.9290000   14.9280000   18.0630000  
H 20.3050000   13.5940000   17.8600000  
H 18.6020000   13.9710000   13.9550000  
H 14.7960000   18.4490000   14.4450000  
H 15.2660000   18.7810000   17.3380000  
H 16.7750000   15.6530000   13.1850000  
