76
011 
C 14.5510000   23.7640000   25.7480000  
C 14.8200000   23.4670000   27.1600000  
C 15.7350000   22.5640000   27.5360000  
C 16.4710000   21.7680000   26.6630000  
C 16.3160000   21.9680000   25.2200000  
C 15.3710000   22.9350000   24.8110000  
C 16.1940000   22.1870000   28.8500000  
C 17.0700000   21.1810000   28.6870000  
N 17.3010000   20.9530000   27.3200000  
O 16.9950000   20.7130000   30.9940000  
C 17.5950000   20.4050000   29.8350000  
O 18.4280000   19.5360000   29.7960000  
O 15.1650000   23.2350000   23.5320000  
O 13.7100000   24.6060000   25.4460000  
H 14.2750000   24.0630000   27.8740000  
H 15.8800000   22.6680000   29.7900000  
H 16.5800000   21.5450000   30.7500000  
H 15.9190000   22.9690000   22.9530000  
C 16.8990000   21.0090000   24.2350000  
C 16.6050000   19.6100000   24.3120000  
C 17.2000000   18.6810000   23.4720000  
C 17.9890000   19.0320000   22.3890000  
C 18.2750000   20.4450000   22.3160000  
C 17.7450000   21.4550000   23.1730000  
C 15.8120000   18.8870000   25.2150000  
C 15.8690000   17.5290000   24.8330000  
N 16.7200000   17.4170000   23.7080000  
O 14.0750000   16.8690000   26.3420000  
C 15.0570000   16.5290000   25.5250000  
O 15.2150000   15.3400000   25.1960000  
O 19.0900000   20.8930000   21.3040000  
O 17.9570000   22.8150000   23.0340000  
H 15.0750000   19.2740000   25.9460000  
H 14.1290000   17.8740000   26.3360000  
H 16.8690000   16.6360000   23.1500000  
H 19.3820000   20.0640000   20.9230000  
H 18.4540000   23.0130000   22.2010000  
C 18.3970000   18.0040000   21.3850000  
C 17.9820000   18.2080000   20.0480000  
C 18.1410000   17.2500000   19.0880000  
C 18.8980000   16.1410000   19.3240000  
C 19.5610000   15.9820000   20.5370000  
C 19.2060000   16.8890000   21.5800000  
C 17.0640000   19.1600000   19.4660000  
C 16.9040000   18.8130000   18.1650000  
N 17.4960000   17.5330000   17.9530000  
O 15.7040000   20.7880000   17.6490000  
C 16.2360000   19.6390000   17.1530000  
O 16.1240000   19.3220000   15.9600000  
O 20.4790000   14.9630000   20.8270000  
O 19.7070000   16.6770000   22.8640000  
H 16.6690000   20.0810000   19.8300000  
H 15.9210000   20.6600000   18.6090000  
H 17.5940000   16.9160000   17.1440000  
H 20.5950000   14.5150000   19.9650000  
H 19.6730000   17.5150000   23.3720000  
C 19.1840000   15.1740000   18.2430000  
C 19.8090000   15.5410000   17.0110000  
C 19.9750000   14.6150000   16.0380000  
C 19.5210000   13.3250000   16.1540000  
C 18.9870000   12.9600000   17.3700000  
C 18.7520000   13.8470000   18.4350000  
C 20.2140000   16.8710000   16.5360000  
C 20.6060000   16.6580000   15.2280000  
N 20.4020000   15.2820000   14.9110000  
O 21.1030000   18.9320000   14.4800000  
C 21.0370000   17.6050000   14.1820000  
O 21.3360000   17.2060000   13.0430000  
O 18.6060000   11.6430000   17.4860000  
O 18.0630000   13.5040000   19.6330000  
H 20.1470000   17.7960000   17.0710000  
H 20.7740000   18.9140000   15.4140000  
H 20.6990000   14.8570000   14.0070000  
H 18.1660000   11.4150000   18.2950000  
H 17.8130000   14.3180000   20.0630000  
H 19.6720000   12.6790000   15.2460000  
