76
011 
C 16.3040000   11.2170000   21.6400000  
C 15.3400000   10.8880000   20.6030000  
C 14.7870000   11.8580000   19.7640000  
C 15.1530000   13.1890000   19.9380000  
C 16.1520000   13.5680000   20.9340000  
C 16.7590000   12.6290000   21.7260000  
C 13.8670000   11.7670000   18.7050000  
C 13.6530000   13.1220000   18.4170000  
N 14.4900000   14.0270000   19.1280000  
O 11.8210000   12.6940000   16.9330000  
C 12.7250000   13.6080000   17.3990000  
O 12.6050000   14.7470000   16.9590000  
O 17.7400000   12.7920000   22.6550000  
O 16.6210000   10.4110000   22.5160000  
H 15.0930000    9.8100000   20.5880000  
H 13.4540000   10.8810000   18.2850000  
H 12.0050000   11.8800000   17.4400000  
H 17.8470000   13.7850000   22.6410000  
C 16.6410000   14.9460000   20.8850000  
C 15.8970000   16.0000000   21.3690000  
C 16.4300000   17.2970000   21.4300000  
C 17.7470000   17.6810000   21.1240000  
C 18.5380000   16.6360000   20.6510000  
C 17.9920000   15.3250000   20.5810000  
C 14.5540000   16.1720000   21.9390000  
C 14.4070000   17.5040000   22.2430000  
N 15.5510000   18.2090000   21.9580000  
O 12.1930000   17.3480000   23.2160000  
C 13.2150000   18.1690000   22.8050000  
O 13.1750000   19.3750000   22.8900000  
O 19.8280000   16.8230000   20.2600000  
O 18.8300000   14.4430000   20.0670000  
H 13.8010000   15.4510000   21.9000000  
H 12.4280000   16.5180000   22.8940000  
H 15.7310000   19.1930000   21.9660000  
H 19.9710000   17.8440000   20.2740000  
H 19.7890000   14.7060000   20.3390000  
C 18.2860000   19.0930000   21.3530000  
C 18.1650000   19.7420000   22.6320000  
C 18.5200000   21.0680000   22.7950000  
C 19.1630000   21.8690000   21.8680000  
C 19.3330000   21.2140000   20.5710000  
C 18.9230000   19.8400000   20.3760000  
C 17.6640000   19.2830000   23.8940000  
C 17.7800000   20.4030000   24.7670000  
N 18.3010000   21.4650000   24.0720000  
O 17.3680000   19.2060000   26.8220000  
C 17.4990000   20.3960000   26.2070000  
O 17.5240000   21.4150000   26.8660000  
O 20.0200000   21.9300000   19.5750000  
O 19.0680000   19.3120000   19.1210000  
H 17.2530000   18.3420000   24.1400000  
H 17.2090000   18.5710000   26.0890000  
H 18.4060000   22.3820000   24.4580000  
H 20.3080000   22.7910000   19.7920000  
H 19.1240000   20.0230000   18.4550000  
C 19.5670000   23.3210000   22.0960000  
C 20.9470000   23.5030000   22.4080000  
C 21.4050000   24.7760000   22.6430000  
C 20.5690000   25.9210000   22.5660000  
C 19.2020000   25.6870000   22.2940000  
C 18.7030000   24.4110000   22.0570000  
C 22.1210000   22.6140000   22.5000000  
C 23.1910000   23.3850000   22.8160000  
N 22.7770000   24.7480000   22.8710000  
O 24.5380000   21.6260000   23.4090000  
C 24.5820000   22.9820000   23.1320000  
O 25.4410000   23.7480000   23.3450000  
O 18.3820000   26.7570000   22.2620000  
O 17.3190000   24.2180000   21.8320000  
H 22.1640000   21.5180000   22.4460000  
H 23.7040000   21.4170000   23.0720000  
H 23.3320000   25.5660000   23.0520000  
H 17.4730000   26.4240000   22.2330000  
H 17.2820000   23.3150000   21.5350000  
H 20.8900000   26.9280000   22.6420000  
