76
011 
C 16.6590000   11.4150000   22.6970000  
C 17.8710000   10.6500000   22.4720000  
C 18.9880000   11.3810000   22.0370000  
C 19.0620000   12.7780000   21.9730000  
C 17.9210000   13.5500000   22.2360000  
C 16.7360000   12.9210000   22.5880000  
C 20.2880000   10.8990000   21.8490000  
C 21.0990000   11.9810000   21.4950000  
N 20.2880000   13.1890000   21.6150000  
O 22.8930000   10.5940000   20.8640000  
C 22.5310000   11.8240000   21.0430000  
O 23.3070000   12.7110000   20.8700000  
O 15.5820000   13.6520000   22.8210000  
O 15.6450000   10.8270000   22.9860000  
H 17.8680000    9.5830000   22.6660000  
H 20.6240000    9.9160000   21.9350000  
H 22.0230000   10.1320000   20.9670000  
H 15.8870000   14.5680000   22.6040000  
C 17.9030000   14.9910000   22.1260000  
C 18.0740000   15.6050000   20.8270000  
C 18.0860000   16.9620000   20.7510000  
C 17.9530000   17.8070000   21.8600000  
C 17.7570000   17.2250000   23.1170000  
C 17.7060000   15.8100000   23.2490000  
C 18.1780000   14.9980000   19.5100000  
C 18.2280000   16.1160000   18.6270000  
N 18.0830000   17.2820000   19.3750000  
O 18.7620000   14.8870000   16.6960000  
C 18.3760000   16.1260000   17.1680000  
O 18.3330000   17.1030000   16.4260000  
O 17.5130000   18.0680000   24.1330000  
O 17.4520000   15.2750000   24.5000000  
H 18.3810000   13.9720000   19.2270000  
H 18.9510000   14.4390000   17.5070000  
H 17.8860000   18.2340000   18.9700000  
H 17.4870000   18.9630000   23.7180000  
H 17.4070000   16.0700000   25.1470000  
C 17.7750000   19.2670000   21.6530000  
C 16.4910000   19.7890000   21.6850000  
C 16.3140000   21.1840000   21.6770000  
C 17.3160000   22.1320000   21.5150000  
C 18.5830000   21.5870000   21.3910000  
C 18.8630000   20.1920000   21.5300000  
C 15.1740000   19.2540000   21.8430000  
C 14.2450000   20.2770000   21.9710000  
N 14.9200000   21.4700000   21.8740000  
O 12.1340000   19.1490000   22.3260000  
C 12.7580000   20.2640000   22.0420000  
O 12.0500000   21.2300000   21.7590000  
O 19.6420000   22.4290000   21.2050000  
O 20.2170000   19.8070000   21.6020000  
H 14.7930000   18.2530000   21.6250000  
H 12.8080000   18.6470000   22.8190000  
H 14.4450000   22.3550000   21.7230000  
H 19.2950000   23.3580000   21.2360000  
H 20.7970000   20.5880000   21.3360000  
C 17.0870000   23.5900000   21.4100000  
C 17.3450000   24.3880000   22.5020000  
C 16.9290000   25.6920000   22.5160000  
C 16.1240000   26.2430000   21.4120000  
C 15.9840000   25.4690000   20.3010000  
C 16.3920000   24.1170000   20.2950000  
C 18.1380000   24.1510000   23.7580000  
C 18.1120000   25.4180000   24.4090000  
N 17.3970000   26.3490000   23.6010000  
O 19.4670000   24.6690000   26.1720000  
C 18.7160000   25.6990000   25.7040000  
O 18.7570000   26.7340000   26.2820000  
O 15.3160000   25.9270000   19.2240000  
O 16.1610000   23.3470000   19.1440000  
H 18.4250000   23.2110000   24.1160000  
H 19.4750000   24.0460000   25.5030000  
H 17.0730000   27.2250000   23.8920000  
H 15.4900000   25.3010000   18.4760000  
H 16.5240000   22.4290000   19.3010000  
H 15.7480000   27.2910000   21.5020000  
