76
011 
C 22.3330000   21.4170000   26.9340000  
C 22.2260000   20.5310000   28.0650000  
C 21.4430000   19.3820000   28.0290000  
C 20.7160000   18.9910000   26.9060000  
C 20.9650000   19.6480000   25.6730000  
C 21.7580000   20.7640000   25.7110000  
C 21.0370000   18.5860000   29.0720000  
C 20.1780000   17.6460000   28.5070000  
N 19.9860000   17.8870000   27.1320000  
O 19.6920000   16.5310000   30.6720000  
C 19.4340000   16.5550000   29.3060000  
O 18.7020000   15.7590000   28.7830000  
O 22.0730000   21.4650000   24.5260000  
O 22.8940000   22.5100000   26.8930000  
H 22.7670000   20.7300000   28.9630000  
H 21.3360000   18.7260000   30.0810000  
H 20.5010000   17.0090000   30.8810000  
H 21.5220000   21.1090000   23.7770000  
C 20.1240000   19.3170000   24.4880000  
C 18.7710000   19.6400000   24.4780000  
C 17.9620000   19.3620000   23.4120000  
C 18.3700000   18.6440000   22.2390000  
C 19.7710000   18.3540000   22.2490000  
C 20.6290000   18.7360000   23.2850000  
C 17.9230000   20.3090000   25.4540000  
C 16.6190000   20.2670000   24.9600000  
N 16.6520000   19.8080000   23.6400000  
O 15.4110000   21.0210000   26.8580000  
C 15.3480000   20.5680000   25.5830000  
O 14.3070000   20.3460000   25.0270000  
O 20.2110000   17.7500000   21.0830000  
O 21.9670000   18.4710000   23.2660000  
H 18.0750000   20.5670000   26.5380000  
H 16.3200000   21.1630000   27.0200000  
H 15.8110000   19.4140000   23.2050000  
H 19.4490000   17.8300000   20.3860000  
H 22.0620000   17.6660000   22.7600000  
C 17.3730000   18.3400000   21.1280000  
C 17.3970000   19.0030000   19.7980000  
C 16.4050000   18.7600000   18.9150000  
C 15.4090000   17.8380000   19.0040000  
C 15.3690000   17.1350000   20.2480000  
C 16.3300000   17.3770000   21.2950000  
C 18.2450000   19.9710000   19.3220000  
C 17.8150000   20.2270000   18.0380000  
N 16.7430000   19.4000000   17.7640000  
O 19.4480000   21.9080000   17.6340000  
C 18.3610000   21.2030000   17.1270000  
O 17.9570000   21.3610000   15.9860000  
O 14.4150000   16.1020000   20.3790000  
O 16.1450000   16.7770000   22.4860000  
H 19.0320000   20.5070000   19.8350000  
H 19.7500000   21.4710000   18.4550000  
H 16.0360000   19.4820000   17.0260000  
H 14.0680000   15.8610000   19.5370000  
H 16.9770000   16.5300000   22.9340000  
C 14.4630000   17.5910000   17.8460000  
C 14.9730000   16.9190000   16.7510000  
C 14.1690000   16.4710000   15.7760000  
C 12.7720000   16.7220000   15.7100000  
C 12.2720000   17.4660000   16.7710000  
C 13.0630000   17.9150000   17.8390000  
C 16.2600000   16.3560000   16.4700000  
C 16.2020000   15.7140000   15.2660000  
N 14.8500000   15.7530000   14.8530000  
O 18.4210000   15.2640000   15.1850000  
C 17.2540000   15.1590000   14.5010000  
O 17.2160000   14.7000000   13.4000000  
O 11.0130000   17.8060000   16.6620000  
O 12.6490000   18.6360000   18.9160000  
H 17.0800000   16.6170000   17.1380000  
H 18.0570000   15.7260000   15.9350000  
H 14.4940000   15.1690000   14.1530000  
H 10.7270000   18.1640000   17.5090000  
H 13.3350000   19.1630000   19.4100000  
H 12.1080000   16.3900000   14.8850000  
