76
011 
C 10.5830000   17.1460000   22.7580000  
C  9.9400000   18.3000000   23.3300000  
C 10.6440000   19.4930000   23.5880000  
C 12.0030000   19.5510000   23.4870000  
C 12.7390000   18.4490000   22.9840000  
C 12.0310000   17.2600000   22.6340000  
C 10.1790000   20.8150000   23.9970000  
C 11.3060000   21.5800000   23.9810000  
N 12.4210000   20.7600000   23.8120000  
O 10.0560000   23.6070000   24.3280000  
C 11.2980000   23.0770000   24.2000000  
O 12.2730000   23.8550000   24.1870000  
O 12.6800000   16.1360000   22.2130000  
O  9.9520000   16.1530000   22.3960000  
H  8.8520000   18.3080000   23.2910000  
H  9.1310000   21.0510000   24.1900000  
H  9.4430000   22.8970000   24.6000000  
H 12.0380000   15.5500000   21.6420000  
C 14.1250000   18.5420000   22.7280000  
C 15.0440000   17.7810000   23.4950000  
C 16.3660000   17.8410000   23.1790000  
C 16.9160000   18.5020000   22.1030000  
C 16.0080000   19.2250000   21.3160000  
C 14.6240000   19.4010000   21.6480000  
C 14.8900000   16.9450000   24.6080000  
C 16.1330000   16.4570000   24.9850000  
N 17.0720000   17.1330000   24.1390000  
O 15.3590000   15.0170000   26.7090000  
C 16.4250000   15.4760000   26.0330000  
O 17.5460000   14.9520000   26.1250000  
O 16.4500000   19.8980000   20.1620000  
O 13.8420000   20.0770000   20.8710000  
H 13.8940000   16.6830000   25.0580000  
H 14.6010000   15.5640000   26.4650000  
H 18.0720000   17.1180000   24.2410000  
H 17.3670000   19.7100000   20.0800000  
H 14.3760000   20.4460000   20.1300000  
C 18.3560000   18.3850000   21.6960000  
C 18.7720000   17.9020000   20.4020000  
C 20.0670000   17.7790000   20.0580000  
C 21.1160000   18.0440000   20.9180000  
C 20.7490000   18.6400000   22.1830000  
C 19.3960000   18.7830000   22.5880000  
C 18.0410000   17.5090000   19.1820000  
C 18.9830000   17.1110000   18.2470000  
N 20.3050000   17.2880000   18.8100000  
O 17.3910000   16.6990000   16.4940000  
C 18.7000000   16.7110000   16.8560000  
O 19.5910000   16.5930000   16.0390000  
O 21.7610000   19.1100000   22.9970000  
O 19.0780000   19.4850000   23.7290000  
H 16.9770000   17.3740000   19.1100000  
H 16.9780000   16.8490000   17.3140000  
H 21.1670000   17.1670000   18.3180000  
H 22.6040000   18.8360000   22.6260000  
H 19.8670000   20.0300000   23.9170000  
C 22.4810000   17.7380000   20.5940000  
C 23.3750000   18.8090000   20.3750000  
C 24.7400000   18.6100000   20.0690000  
C 25.2910000   17.2790000   20.0070000  
C 24.4260000   16.2320000   20.2430000  
C 23.0250000   16.4420000   20.5640000  
C 23.1240000   20.1720000   20.1750000  
C 24.3420000   20.8120000   19.9860000  
N 25.3550000   19.8360000   19.9400000  
O 23.5160000   22.9260000   19.4180000  
C 24.6310000   22.2130000   19.5050000  
O 25.7380000   22.6990000   19.2560000  
O 24.9480000   14.9710000   20.1100000  
O 22.3480000   15.3320000   20.8280000  
H 22.2030000   20.7120000   20.3130000  
H 22.7710000   22.3280000   19.5080000  
H 26.3380000   19.9600000   19.7790000  
H 24.4700000   14.3350000   20.6250000  
H 21.3810000   15.5610000   20.7890000  
H 26.3330000   17.2320000   19.7480000  
