76
011 
C 13.5930000   23.3820000   25.5220000  
C 13.6760000   22.9610000   26.9510000  
C 14.3260000   21.7500000   27.2560000  
C 15.0060000   20.9460000   26.3490000  
C 14.9670000   21.2860000   24.9280000  
C 14.1880000   22.3930000   24.5720000  
C 14.5940000   21.1810000   28.5220000  
C 15.3780000   20.1280000   28.3050000  
N 15.6310000   19.9620000   26.9520000  
O 15.4390000   19.4500000   30.6190000  
C 15.7520000   19.0750000   29.3300000  
O 16.2960000   18.0170000   29.0650000  
O 14.1360000   22.7760000   23.2850000  
O 12.9400000   24.3530000   25.2690000  
H 13.3440000   23.6850000   27.7250000  
H 14.0760000   21.4560000   29.4340000  
H 14.9440000   20.2450000   30.4870000  
H 13.7400000   23.6270000   23.2980000  
C 15.7400000   20.5140000   23.9750000  
C 15.0690000   19.6280000   23.1000000  
C 15.8070000   18.9220000   22.2330000  
C 17.2390000   18.8560000   22.2490000  
C 17.9010000   19.7140000   23.1190000  
C 17.1520000   20.5890000   23.9390000  
C 13.7430000   19.2850000   22.9160000  
C 13.7810000   18.1380000   22.1490000  
N 15.0720000   17.9390000   21.6370000  
O 11.4920000   17.5820000   22.2980000  
C 12.6610000   17.2340000   21.7740000  
O 12.7800000   16.2240000   21.0890000  
O 19.2470000   19.6870000   23.2530000  
O 17.7830000   21.2720000   24.9310000  
H 12.8610000   19.7760000   23.3880000  
H 11.7530000   18.2810000   22.9190000  
H 15.4070000   17.2740000   20.9210000  
H 19.5700000   19.0520000   22.6850000  
H 18.7260000   21.0700000   24.8390000  
C 17.9510000   17.9760000   21.3300000  
C 17.8530000   18.0470000   19.9400000  
C 18.6840000   17.2990000   19.1560000  
C 19.7760000   16.5620000   19.5800000  
C 19.8440000   16.3890000   21.0520000  
C 18.9220000   17.0910000   21.8610000  
C 16.9820000   18.7460000   19.0340000  
C 17.2700000   18.3200000   17.7340000  
N 18.3570000   17.4610000   17.8350000  
O 15.4600000   19.3690000   16.7280000  
C 16.4960000   18.5600000   16.5400000  
O 16.7060000   18.0920000   15.4330000  
O 20.6090000   15.3860000   21.5840000  
O 18.9600000   16.8170000   23.1370000  
H 16.3680000   19.5370000   19.3430000  
H 15.5070000   19.5270000   17.6950000  
H 18.6690000   16.8940000   17.0650000  
H 20.7450000   14.8570000   20.7400000  
H 19.8000000   16.2990000   23.3320000  
C 20.6960000   15.8480000   18.6990000  
C 21.8240000   16.4950000   18.3060000  
C 22.8450000   15.8910000   17.6430000  
C 22.6380000   14.6380000   17.0610000  
C 21.4140000   13.9750000   17.2980000  
C 20.4210000   14.5800000   18.1740000  
C 22.3360000   17.8230000   18.6210000  
C 23.5820000   17.9520000   17.9870000  
N 23.8850000   16.7330000   17.4190000  
O 23.8650000   20.3480000   18.5630000  
C 24.4300000   19.2140000   18.0440000  
O 25.5590000   19.1490000   17.6630000  
O 21.2850000   12.7640000   16.7050000  
O 19.2320000   13.9670000   18.3850000  
H 21.7850000   18.6300000   19.0520000  
H 23.0110000   20.0850000   18.9520000  
H 24.6230000   16.6960000   16.7180000  
H 20.3670000   12.4750000   16.8380000  
H 18.8450000   14.5400000   19.0230000  
H 23.4030000   14.1390000   16.4700000  
