76
011 
C 18.4260000   11.1110000   22.2250000  
C 19.7450000   10.9390000   22.9460000  
C 20.3870000   12.0450000   23.3840000  
C 20.0350000   13.3830000   23.0800000  
C 18.8100000   13.5830000   22.3390000  
C 18.0410000   12.5130000   21.9500000  
C 21.5640000   12.1470000   24.1920000  
C 21.8160000   13.5160000   24.2840000  
N 20.8450000   14.2390000   23.5900000  
O 23.7740000   13.2300000   25.5550000  
C 22.9800000   14.0760000   24.9450000  
O 23.1480000   15.2650000   24.8650000  
O 16.8390000   12.6220000   21.2750000  
O 17.7290000   10.1610000   21.8450000  
H 20.1920000   10.0090000   23.1170000  
H 22.1490000   11.2560000   24.4710000  
H 23.3240000   12.3380000   25.5260000  
H 16.9430000   13.3740000   20.6640000  
C 18.4470000   14.9940000   21.9850000  
C 19.2300000   15.6920000   21.0380000  
C 18.9620000   17.0480000   20.8410000  
C 17.9360000   17.7360000   21.4950000  
C 17.1750000   16.9970000   22.4380000  
C 17.3870000   15.6220000   22.7030000  
C 20.3010000   15.3730000   20.1970000  
C 20.5440000   16.5240000   19.3870000  
N 19.7320000   17.5850000   19.8370000  
O 21.9890000   15.3990000   17.8860000  
C 21.3960000   16.5790000   18.1300000  
O 21.5780000   17.5660000   17.4550000  
O 16.3150000   17.6910000   23.2090000  
O 16.5460000   15.0500000   23.6680000  
H 20.7820000   14.3550000   20.0390000  
H 21.8300000   14.9410000   18.7180000  
H 19.6160000   18.4840000   19.3500000  
H 16.4250000   18.6070000   22.8270000  
H 16.0650000   15.7580000   24.0940000  
C 17.5430000   19.1230000   21.1290000  
C 16.2470000   19.4550000   20.6690000  
C 15.8450000   20.7940000   20.5430000  
C 16.6430000   21.9020000   20.8600000  
C 17.9620000   21.5920000   21.2790000  
C 18.3670000   20.2010000   21.5460000  
C 15.0500000   18.7150000   20.3480000  
C 13.9590000   19.5560000   20.3470000  
N 14.4580000   20.8730000   20.3560000  
O 12.2030000   18.0540000   19.7190000  
C 12.5240000   19.3390000   19.9810000  
O 11.6700000   20.1790000   19.8690000  
O 18.8460000   22.5960000   21.5280000  
O 19.5400000   20.0580000   22.1630000  
H 15.0240000   17.6200000   20.3190000  
H 13.0470000   17.6310000   19.5200000  
H 13.9210000   21.6140000   20.6890000  
H 18.3130000   23.3780000   21.2120000  
H 19.6850000   20.9430000   22.5710000  
C 16.1980000   23.3090000   20.7320000  
C 15.8750000   24.0620000   21.9510000  
C 15.2480000   25.3070000   21.9330000  
C 14.9620000   25.9100000   20.7500000  
C 15.3370000   25.2580000   19.4750000  
C 15.9930000   24.0120000   19.5460000  
C 16.0020000   23.6680000   23.2750000  
C 15.4890000   24.7050000   24.0690000  
N 14.9910000   25.7360000   23.2460000  
O 15.9070000   23.6430000   26.1300000  
C 15.3690000   24.7590000   25.5080000  
O 14.8270000   25.7130000   26.0420000  
O 14.9860000   25.8530000   18.3170000  
O 16.3800000   23.3940000   18.4050000  
H 16.2260000   22.6570000   23.5520000  
H 16.4080000   23.2130000   25.3530000  
H 14.4840000   26.5430000   23.5830000  
H 15.4490000   25.4320000   17.6240000  
H 17.2090000   22.9680000   18.6000000  
H 14.4560000   26.8510000   20.7260000  
