76
011 
C 10.3270000   16.6730000   21.3750000  
C  9.6930000   17.7780000   22.1760000  
C 10.4390000   18.7380000   22.7910000  
C 11.7870000   18.9090000   22.4440000  
C 12.5120000   17.9040000   21.6820000  
C 11.8320000   16.7870000   21.2070000  
C 10.1070000   19.6700000   23.7780000  
C 11.2810000   20.4030000   23.9820000  
N 12.3440000   19.9100000   23.1610000  
O 10.2420000   21.8250000   25.6760000  
C 11.3740000   21.4210000   25.0320000  
O 12.3940000   22.0110000   25.3260000  
O 12.4180000   15.7830000   20.6170000  
O  9.6920000   15.8580000   20.7450000  
H  8.6180000   17.7680000   22.5000000  
H  9.1900000   19.7060000   24.3260000  
H  9.4690000   21.3570000   25.3210000  
H 11.7980000   15.0780000   20.3780000  
C 13.9590000   18.0390000   21.5680000  
C 14.7690000   17.9210000   22.6640000  
C 16.0790000   18.0370000   22.6020000  
C 16.8460000   18.2930000   21.4230000  
C 15.9940000   18.4650000   20.2490000  
C 14.6000000   18.3820000   20.3770000  
C 14.4050000   17.6500000   24.0730000  
C 15.6170000   17.5060000   24.7580000  
N 16.6610000   17.7770000   23.8390000  
O 14.6470000   17.2220000   26.9410000  
C 15.7890000   17.3580000   26.2380000  
O 16.8570000   17.4010000   26.8070000  
O 16.5920000   18.6120000   19.0150000  
O 13.8370000   18.7440000   19.2190000  
H 13.4250000   17.6840000   24.5160000  
H 13.9690000   17.1960000   26.2160000  
H 17.6540000   17.8770000   24.0730000  
H 17.5900000   18.4110000   19.1460000  
H 14.4450000   19.0440000   18.4450000  
C 18.3320000   18.4890000   21.3940000  
C 19.0780000   17.6670000   20.4850000  
C 20.4690000   17.6950000   20.5850000  
C 21.1750000   18.5970000   21.3760000  
C 20.4020000   19.4970000   22.1250000  
C 19.0400000   19.4930000   22.0610000  
C 18.8340000   16.5070000   19.6960000  
C 20.0840000   15.9670000   19.3260000  
N 21.0830000   16.7370000   19.8060000  
O 19.1260000   14.5670000   17.6110000  
C 20.2840000   14.8620000   18.3150000  
O 21.3140000   14.2800000   18.1420000  
O 21.0200000   20.4410000   22.8690000  
O 18.3270000   20.3620000   22.8260000  
H 17.9110000   16.0760000   19.3360000  
H 18.4320000   15.1250000   17.9710000  
H 22.0830000   16.6720000   19.5950000  
H 22.0140000   20.1690000   22.9490000  
H 18.8310000   21.2120000   22.8250000  
C 22.6760000   18.6190000   21.4260000  
C 23.4100000   19.6860000   20.8770000  
C 24.7390000   19.6900000   20.8480000  
C 25.4670000   18.5960000   21.3570000  
C 24.7940000   17.5560000   21.9940000  
C 23.3710000   17.5070000   21.9830000  
C 22.9560000   20.8780000   20.2200000  
C 24.0430000   21.5190000   19.7120000  
N 25.1510000   20.7840000   20.1780000  
O 22.8290000   23.3070000   18.6470000  
C 24.0920000   22.7540000   18.9860000  
O 25.0460000   23.4180000   18.7040000  
O 25.5690000   16.4980000   22.4040000  
O 22.7000000   16.5110000   22.5810000  
H 21.9020000   21.0680000   20.1070000  
H 22.2540000   22.6950000   19.1140000  
H 26.0770000   21.1610000   20.1700000  
H 24.9690000   15.9960000   22.9280000  
H 21.7640000   16.7370000   22.6660000  
H 26.5230000   18.6410000   21.1730000  
