76
011 
C 11.9370000   22.2460000   24.8440000  
C 12.4250000   22.7670000   26.0820000  
C 13.6680000   22.4400000   26.5290000  
C 14.5490000   21.7080000   25.8000000  
C 14.1680000   21.1560000   24.4890000  
C 12.8440000   21.2820000   24.1300000  
C 14.4420000   22.9350000   27.5810000  
C 15.7380000   22.5110000   27.3780000  
N 15.7910000   21.7750000   26.2600000  
O 16.6330000   23.6190000   29.2560000  
C 16.9190000   22.8950000   28.1470000  
O 18.0600000   22.6350000   27.7930000  
O 12.2140000   20.6460000   23.1550000  
O 10.8330000   22.5240000   24.4020000  
H 11.7210000   23.4170000   26.5900000  
H 14.0180000   23.5640000   28.3570000  
H 15.6440000   23.6780000   29.1900000  
H 12.6960000   20.7780000   22.3310000  
C 15.0880000   20.3690000   23.6990000  
C 15.4810000   19.0940000   24.1760000  
C 16.4200000   18.4220000   23.4350000  
C 17.1150000   18.8470000   22.2770000  
C 16.7780000   20.0980000   21.8650000  
C 15.7270000   20.8730000   22.5450000  
C 15.0280000   18.2510000   25.2370000  
C 15.8660000   17.1260000   25.2390000  
N 16.7410000   17.2720000   24.1120000  
O 15.1250000   16.1910000   27.3170000  
C 15.9080000   15.9960000   26.2510000  
O 16.7390000   15.0840000   26.0860000  
O 17.4670000   20.5720000   20.7170000  
O 15.3710000   22.0740000   21.9980000  
H 14.2490000   18.4270000   25.9990000  
H 14.6840000   17.0720000   27.2230000  
H 17.2740000   16.5230000   23.8070000  
H 18.0300000   19.8770000   20.3490000  
H 15.8170000   22.1590000   21.1470000  
C 18.0420000   18.0090000   21.4430000  
C 17.8510000   17.7800000   20.1140000  
C 18.7490000   17.0640000   19.3570000  
C 19.9040000   16.4830000   19.8870000  
C 20.1890000   16.8310000   21.2200000  
C 19.3070000   17.5970000   21.9250000  
C 16.7320000   18.1180000   19.2150000  
C 17.0540000   17.4040000   17.9790000  
N 18.2750000   16.8000000   18.0930000  
O 15.0430000   18.0170000   16.9560000  
C 16.1230000   17.2860000   16.8510000  
O 16.3060000   16.5670000   15.9030000  
O 21.3700000   16.4070000   21.8050000  
O 19.7690000   17.9180000   23.2030000  
H 15.7800000   18.6370000   19.3120000  
H 15.0150000   18.3800000   17.8320000  
H 18.6880000   16.1870000   17.4740000  
H 21.8480000   15.9340000   21.0800000  
H 19.1730000   18.5850000   23.5470000  
C 20.9690000   15.7800000   19.0290000  
C 21.4750000   16.2560000   17.8130000  
C 22.3200000   15.5140000   17.0190000  
C 22.8120000   14.2960000   17.4180000  
C 22.2620000   13.7570000   18.6110000  
C 21.3520000   14.5180000   19.4300000  
C 21.3950000   17.5490000   17.1630000  
C 22.2410000   17.4750000   16.0060000  
N 22.7350000   16.2440000   15.9490000  
O 21.8100000   19.6380000   15.1940000  
C 22.5800000   18.5880000   15.0780000  
O 23.3940000   18.4970000   14.1740000  
O 22.6910000   12.5390000   19.0300000  
O 20.8580000   13.9190000   20.5350000  
H 20.9480000   18.4270000   17.5740000  
H 21.3630000   19.5390000   16.0440000  
H 23.2110000   15.9440000   15.1260000  
H 22.0920000   12.2050000   19.7700000  
H 20.2000000   14.5040000   20.9370000  
H 23.4330000   13.7270000   16.8730000  
