76
011 
C 23.5600000   13.9190000   22.8520000  
C 23.1200000   13.1060000   23.9690000  
C 21.8310000   13.0990000   24.4220000  
C 20.8970000   13.9520000   23.8890000  
C 21.3370000   14.9450000   22.9030000  
C 22.6270000   15.0190000   22.4290000  
C 21.1890000   12.3770000   25.4240000  
C 19.8710000   12.9150000   25.3900000  
N 19.7490000   13.9570000   24.5250000  
O 19.0540000   11.3550000   27.1050000  
C 18.8340000   12.4420000   26.3340000  
O 17.7650000   12.9840000   26.4110000  
O 22.9800000   15.9480000   21.4880000  
O 24.6920000   13.8330000   22.3660000  
H 23.9070000   12.5020000   24.4100000  
H 21.6380000   11.4730000   25.9320000  
H 19.9040000   10.9680000   26.8980000  
H 22.2320000   16.5160000   21.4610000  
C 20.3080000   15.9030000   22.5240000  
C 20.3270000   17.2170000   22.9480000  
C 19.2710000   18.0860000   22.5820000  
C 18.2220000   17.7340000   21.6860000  
C 18.1560000   16.3560000   21.3670000  
C 19.1490000   15.4720000   21.7820000  
C 21.2900000   18.0100000   23.7270000  
C 20.6680000   19.3260000   23.7370000  
N 19.3640000   19.3300000   23.0940000  
O 22.3480000   20.3600000   25.1820000  
C 21.3590000   20.4700000   24.2520000  
O 21.1160000   21.6110000   23.8000000  
O 17.1710000   15.9580000   20.4860000  
O 18.9370000   14.1620000   21.4900000  
H 22.2200000   17.7010000   24.1130000  
H 22.3400000   19.4200000   25.3320000  
H 18.7240000   20.1120000   22.9780000  
H 16.5930000   16.6860000   20.3640000  
H 19.7240000   13.6650000   21.6900000  
C 17.1010000   18.7150000   21.4390000  
C 17.3960000   19.9620000   20.8660000  
C 16.4340000   20.8840000   20.5620000  
C 15.0500000   20.6690000   20.8730000  
C 14.7410000   19.4580000   21.4830000  
C 15.7300000   18.4670000   21.7710000  
C 18.6000000   20.4500000   20.2510000  
C 18.3190000   21.6660000   19.6860000  
N 16.9390000   21.9280000   19.8670000  
O 20.5830000   22.2580000   19.3230000  
C 19.3180000   22.5440000   19.0510000  
O 19.0480000   23.5030000   18.3230000  
O 13.4160000   19.2280000   21.8530000  
O 15.3340000   17.1990000   22.2190000  
H 19.4640000   19.9050000   20.1460000  
H 20.6650000   21.5640000   19.9150000  
H 16.4050000   22.6860000   19.4290000  
H 12.9130000   19.9000000   21.3310000  
H 16.1450000   16.7580000   22.5560000  
C 14.0460000   21.7220000   20.7120000  
C 13.0400000   21.6630000   19.6930000  
C 12.0730000   22.5660000   19.5360000  
C 12.0650000   23.7010000   20.3610000  
C 13.0200000   23.8600000   21.3970000  
C 14.0320000   22.8810000   21.5470000  
C 12.8890000   20.7490000   18.6340000  
C 11.9120000   21.1690000   17.8060000  
N 11.4770000   22.3730000   18.3400000  
O 12.3750000   19.6840000   16.0640000  
C 11.5240000   20.6170000   16.5250000  
O 10.5010000   20.8860000   15.9440000  
O 13.1170000   25.0550000   22.0840000  
O 14.9330000   23.0360000   22.5060000  
H 13.5780000   19.8690000   18.5230000  
H 12.9160000   19.3540000   16.7880000  
H 10.7150000   22.9560000   17.9460000  
H 13.8770000   25.0880000   22.5870000  
H 15.5020000   22.2500000   22.6660000  
H 11.4480000   24.5270000   19.9750000  
