76
011 
C 20.6390000   14.3390000   27.2820000  
C 22.0630000   14.0090000   26.8740000  
C 22.4920000   14.4830000   25.6090000  
C 21.7920000   15.3850000   24.8100000  
C 20.4850000   15.8420000   25.2510000  
C 19.9310000   15.3000000   26.4270000  
C 23.7350000   14.2200000   24.9930000  
C 23.6910000   15.0070000   23.8420000  
N 22.5020000   15.7450000   23.7650000  
O 25.8850000   14.4280000   23.0150000  
C 24.7200000   15.1300000   22.8040000  
O 24.4620000   15.7350000   21.7810000  
O 18.6360000   15.5730000   26.8510000  
O 20.2210000   13.8720000   28.3540000  
H 22.5210000   13.2960000   27.5220000  
H 24.4900000   13.6000000   25.4230000  
H 25.6970000   13.9540000   23.8310000  
H 18.4140000   15.1030000   27.6070000  
C 19.7730000   16.7960000   24.3990000  
C 19.4630000   16.5690000   23.0010000  
C 18.8460000   17.5020000   22.2470000  
C 18.3720000   18.7610000   22.6980000  
C 18.7050000   19.0220000   24.0620000  
C 19.3910000   18.1040000   24.8550000  
C 19.8470000   15.4820000   22.1840000  
C 19.3980000   15.8310000   20.9150000  
N 18.7930000   17.1030000   20.9540000  
O 19.9130000   13.7030000   19.9700000  
C 19.3740000   14.9100000   19.7230000  
O 18.9060000   15.2460000   18.6380000  
O 18.5000000   20.3140000   24.5450000  
O 19.7680000   18.4140000   26.0990000  
H 20.3460000   14.5590000   22.4550000  
H 19.9660000   13.6250000   20.9420000  
H 18.3680000   17.5460000   20.1110000  
H 18.1980000   20.8870000   23.8570000  
H 19.6060000   19.3360000   26.2800000  
C 17.6220000   19.6600000   21.7660000  
C 16.3650000   19.2860000   21.2570000  
C 15.6690000   20.0720000   20.3570000  
C 16.1770000   21.2780000   19.8280000  
C 17.4350000   21.7100000   20.3670000  
C 18.1140000   20.9270000   21.3070000  
C 15.5100000   18.1120000   21.5190000  
C 14.3790000   18.3010000   20.7480000  
N 14.4700000   19.6140000   20.0840000  
O 13.4920000   16.2440000   21.3850000  
C 13.3160000   17.2920000   20.6200000  
O 12.3110000   17.3930000   19.9150000  
O 17.8920000   22.9550000   20.0080000  
O 19.3290000   21.4030000   21.5940000  
H 15.8470000   17.2030000   22.0480000  
H 14.3730000   16.4360000   21.8150000  
H 13.6650000   19.9970000   19.4990000  
H 17.1470000   23.4510000   19.5180000  
H 19.3460000   22.3020000   21.3590000  
C 15.3710000   22.0780000   18.7990000  
C 14.0570000   22.4950000   19.0430000  
C 13.1930000   22.9680000   18.0500000  
C 13.6860000   23.0490000   16.7050000  
C 15.0520000   22.7280000   16.4490000  
C 15.8830000   22.2420000   17.4970000  
C 13.2420000   22.4530000   20.3090000  
C 11.9260000   22.6760000   19.8990000  
N 11.9490000   23.0770000   18.5320000  
O 10.8610000   22.5160000   22.1300000  
C 10.6530000   22.6280000   20.7630000  
O  9.5660000   22.8070000   20.2400000  
O 15.5160000   22.9220000   15.1900000  
O 17.1160000   21.7340000   17.1030000  
H 13.5070000   21.9800000   21.2770000  
H 11.8320000   22.5610000   22.2630000  
H 11.0520000   23.1210000   18.0870000  
H 16.5420000   22.8800000   15.2060000  
H 17.5000000   21.5270000   17.9710000  
H 13.0820000   23.3480000   15.8420000  
