76
011 
C 17.3640000   11.4830000   19.4020000  
C 17.7810000   10.6300000   20.4840000  
C 18.1540000   11.2290000   21.6680000  
C 17.9900000   12.5720000   21.9540000  
C 17.5440000   13.4950000   20.9010000  
C 17.3660000   12.9780000   19.6820000  
C 18.6720000   10.6640000   22.9140000  
C 18.6680000   11.6890000   23.8580000  
N 18.2490000   12.8880000   23.1840000  
O 19.6520000   10.3720000   25.6010000  
C 19.1360000   11.5330000   25.2740000  
O 18.9980000   12.4580000   26.0800000  
O 17.1700000   13.7160000   18.5680000  
O 17.1260000   11.0200000   18.3000000  
H 17.8100000    9.5860000   20.3120000  
H 18.9760000    9.6730000   23.1390000  
H 19.5980000    9.8110000   24.8440000  
H 17.6880000   14.5290000   18.7940000  
C 17.5300000   14.9150000   21.2210000  
C 18.4390000   15.7930000   20.6010000  
C 18.4640000   17.1000000   20.9580000  
C 17.6080000   17.6510000   21.9360000  
C 16.5190000   16.8100000   22.3700000  
C 16.5080000   15.4010000   22.0460000  
C 19.5160000   15.5650000   19.7140000  
C 20.0520000   16.8300000   19.4750000  
N 19.4190000   17.7830000   20.2600000  
O 21.7330000   16.0790000   18.1110000  
C 21.0920000   17.1810000   18.5570000  
O 21.4950000   18.3340000   18.3700000  
O 15.6300000   17.4300000   23.2740000  
O 15.5730000   14.6610000   22.6890000  
H 19.6970000   14.6590000   19.1260000  
H 21.1280000   15.4020000   18.4370000  
H 19.6270000   18.7580000   20.2970000  
H 15.8380000   18.3370000   23.1950000  
H 15.7720000   13.7130000   22.4110000  
C 17.5700000   19.1210000   22.0810000  
C 16.6560000   19.8500000   21.3780000  
C 16.5940000   21.2400000   21.3200000  
C 17.4910000   22.0410000   22.0760000  
C 18.3670000   21.2570000   22.9430000  
C 18.4350000   19.8660000   22.9350000  
C 15.9050000   19.4420000   20.2240000  
C 15.5840000   20.5960000   19.4850000  
N 15.8770000   21.7350000   20.2750000  
O 14.7700000   19.4640000   17.7090000  
C 14.9290000   20.6590000   18.2070000  
O 14.4920000   21.5920000   17.5330000  
O 19.3290000   21.9100000   23.7320000  
O 19.3320000   19.1800000   23.7720000  
H 15.7970000   18.3890000   20.0190000  
H 15.3110000   18.9240000   18.2940000  
H 15.8310000   22.6680000   19.9370000  
H 19.2270000   22.8560000   23.6440000  
H 19.2540000   18.2240000   23.6950000  
C 17.4680000   23.4970000   22.0010000  
C 17.1160000   24.3200000   23.1010000  
C 17.1810000   25.7060000   23.0270000  
C 17.4220000   26.3840000   21.8240000  
C 17.6410000   25.6070000   20.6270000  
C 17.7440000   24.1860000   20.7240000  
C 16.8130000   24.0030000   24.4780000  
C 16.6850000   25.1990000   25.1670000  
N 16.9540000   26.2680000   24.2930000  
O 16.5330000   24.0310000   27.1880000  
C 16.3930000   25.2510000   26.6210000  
O 16.2450000   26.2750000   27.2170000  
O 17.7720000   26.2370000   19.4330000  
O 18.2780000   23.5560000   19.6970000  
H 16.6130000   22.9790000   24.8090000  
H 16.9810000   23.3980000   26.5810000  
H 16.8030000   27.1970000   24.5390000  
H 18.0590000   25.5210000   18.7810000  
H 18.6070000   22.6770000   19.8990000  
H 17.4910000   27.4840000   21.7040000  
