76
011 
C 22.0330000   19.8110000   27.6170000  
C 21.2730000   19.4910000   28.8300000  
C 19.9720000   19.1500000   28.7540000  
C 19.3010000   18.9450000   27.5280000  
C 19.9930000   19.1910000   26.2720000  
C 21.3000000   19.6190000   26.3150000  
C 18.9470000   18.8830000   29.7710000  
C 17.8080000   18.6080000   29.0620000  
N 17.9960000   18.7010000   27.6990000  
O 16.5550000   18.4720000   31.0860000  
C 16.4970000   18.4820000   29.7420000  
O 15.4000000   18.4420000   29.1880000  
O 21.9960000   19.8000000   25.1680000  
O 23.1790000   20.1460000   27.6120000  
H 21.7010000   19.7510000   29.7770000  
H 19.1160000   18.9570000   30.8260000  
H 17.4760000   18.4180000   31.2240000  
H 22.9020000   20.0010000   25.4600000  
C 19.2140000   19.0080000   25.0790000  
C 18.3750000   20.0460000   24.5470000  
C 17.7400000   19.8470000   23.3500000  
C 17.8100000   18.6780000   22.5530000  
C 18.6920000   17.6860000   23.0630000  
C 19.3720000   17.8620000   24.3060000  
C 18.0160000   21.3590000   24.9570000  
C 17.1270000   21.8880000   23.9890000  
N 17.0200000   20.9570000   23.0030000  
O 16.6310000   23.8780000   25.1150000  
C 16.5540000   23.2440000   23.9470000  
O 15.9440000   23.7130000   23.0200000  
O 18.9090000   16.5410000   22.3670000  
O 20.1230000   16.8030000   24.7180000  
H 18.3870000   21.9040000   25.8650000  
H 17.0760000   23.2520000   25.7280000  
H 16.6150000   21.0840000   22.1270000  
H 18.6410000   16.6910000   21.4560000  
H 20.3500000   16.2380000   23.9800000  
C 17.2230000   18.6640000   21.1790000  
C 18.0100000   18.3960000   19.9510000  
C 17.3840000   18.3030000   18.7020000  
C 16.0390000   18.2640000   18.5040000  
C 15.2250000   18.4300000   19.6450000  
C 15.7780000   18.6700000   20.9590000  
C 19.4060000   18.3120000   19.7040000  
C 19.5880000   18.0290000   18.3220000  
N 18.3110000   17.9380000   17.7220000  
O 22.0330000   17.9290000   18.2350000  
C 20.8610000   17.7530000   17.6610000  
O 20.8480000   17.4640000   16.4780000  
O 13.8550000   18.4060000   19.5230000  
O 14.9530000   18.8970000   22.0080000  
H 20.2490000   18.3220000   20.4210000  
H 21.8740000   18.1980000   19.1250000  
H 18.0690000   17.5580000   16.8190000  
H 13.5700000   18.4010000   18.5560000  
H 14.0960000   18.9480000   21.6310000  
C 15.5790000   18.1340000   17.1010000  
C 15.5840000   16.8900000   16.4470000  
C 15.1830000   16.7450000   15.1100000  
C 14.6910000   17.7900000   14.3660000  
C 14.6970000   19.0750000   14.9810000  
C 15.2670000   19.2170000   16.2790000  
C 15.9880000   15.6140000   16.9430000  
C 15.8370000   14.7320000   15.8380000  
N 15.3610000   15.4160000   14.6720000  
O 16.7240000   12.8970000   16.9700000  
C 16.1140000   13.3390000   15.8580000  
O 15.9460000   12.6740000   14.8610000  
O 14.3060000   20.1240000   14.2720000  
O 15.4280000   20.5260000   16.7470000  
H 16.1750000   15.3160000   17.9230000  
H 16.9620000   13.6270000   17.5700000  
H 15.0070000   15.0220000   13.8810000  
H 14.6590000   21.0040000   14.6930000  
H 16.0010000   20.4190000   17.4650000  
H 14.3290000   17.6620000   13.3120000  
