76
011 
C 23.2320000   13.6270000   22.3990000  
C 22.6660000   12.3870000   23.1370000  
C 21.3760000   12.3850000   23.6340000  
C 20.5120000   13.4660000   23.4480000  
C 20.9290000   14.6100000   22.6360000  
C 22.2710000   14.7130000   22.2440000  
C 20.7490000   11.4240000   24.4200000  
C 19.4670000   11.8990000   24.4730000  
N 19.3240000   13.1910000   23.8560000  
O 18.8640000   10.0010000   25.7290000  
C 18.4190000   11.2230000   25.2310000  
O 17.2820000   11.5780000   25.4080000  
O 22.8210000   15.8170000   21.6410000  
O 24.4390000   13.6460000   22.0070000  
H 23.3690000   11.6110000   23.3440000  
H 21.2320000   10.6000000   24.8820000  
H 19.7420000    9.7560000   25.3740000  
H 22.1090000   16.4520000   21.4770000  
C 19.9660000   15.7350000   22.3760000  
C 19.9700000   16.8930000   23.2090000  
C 19.2030000   17.9740000   22.9410000  
C 18.3240000   18.0900000   21.8570000  
C 18.3140000   16.9150000   21.0160000  
C 19.1230000   15.7860000   21.2490000  
C 20.8590000   17.2890000   24.2370000  
C 20.4800000   18.5110000   24.7170000  
N 19.3910000   18.9390000   23.9370000  
O 22.1380000   18.8570000   26.4100000  
C 21.0480000   19.4020000   25.8030000  
O 20.5700000   20.4250000   26.1510000  
O 17.4080000   16.8830000   19.9790000  
O 18.9670000   14.6920000   20.4980000  
H 21.6350000   16.7170000   24.7060000  
H 22.1980000   17.9330000   26.1320000  
H 19.0870000   19.8700000   23.9280000  
H 16.7900000   17.6230000   20.1590000  
H 19.3530000   14.0090000   21.0210000  
C 17.4900000   19.3130000   21.5540000  
C 17.7100000   20.0450000   20.3550000  
C 16.8090000   21.0320000   20.0590000  
C 15.7890000   21.4860000   20.8530000  
C 15.5970000   20.7670000   22.0530000  
C 16.4010000   19.6800000   22.3960000  
C 18.5590000   19.8120000   19.2100000  
C 18.2880000   20.8740000   18.3070000  
N 17.1210000   21.5220000   18.7810000  
O 19.8120000   20.3950000   16.6080000  
C 18.8680000   21.2520000   17.0280000  
O 18.6540000   22.2930000   16.4710000  
O 14.7120000   21.3270000   22.9350000  
O 16.1000000   18.9850000   23.5430000  
H 19.2680000   19.0510000   19.0290000  
H 19.8960000   19.6960000   17.2250000  
H 16.6220000   22.2850000   18.3140000  
H 14.1050000   21.8760000   22.4500000  
H 16.7090000   18.2530000   23.5690000  
C 14.8680000   22.6310000   20.4140000  
C 13.4340000   22.5330000   20.3560000  
C 12.6610000   23.6680000   20.1090000  
C 13.1820000   24.9400000   19.8190000  
C 14.5720000   25.0270000   19.7080000  
C 15.3850000   23.9290000   20.0640000  
C 12.5810000   21.3750000   20.5030000  
C 11.2730000   21.8780000   20.3090000  
N 11.2950000   23.2970000   20.0750000  
O 10.2900000   19.7060000   20.3510000  
C 10.0600000   21.0230000   20.3990000  
O  8.9140000   21.4210000   20.3900000  
O 15.0550000   26.2040000   19.2150000  
O 16.7480000   24.1860000   20.1940000  
H 12.8880000   20.2940000   20.6330000  
H 11.2410000   19.5760000   20.3110000  
H 10.4930000   23.8900000   19.8700000  
H 16.0290000   26.2190000   19.2790000  
H 17.1190000   23.6060000   20.8830000  
H 12.5320000   25.7580000   19.4100000  
