76
011 
C 23.8430000   15.2280000   24.3240000  
C 23.7120000   15.1150000   25.8130000  
C 22.5170000   15.4370000   26.4470000  
C 21.3940000   15.9730000   25.7550000  
C 21.4640000   16.1720000   24.3570000  
C 22.6650000   15.8540000   23.6930000  
C 22.1330000   15.5940000   27.7870000  
C 20.8170000   16.0360000   27.7880000  
N 20.3390000   16.1600000   26.4760000  
O 20.7150000   15.6310000   30.0860000  
C 19.9880000   16.0640000   28.9950000  
O 18.7730000   16.3460000   29.0730000  
O 22.7680000   15.9270000   22.3370000  
O 24.8720000   14.8290000   23.7110000  
H 24.5620000   14.7490000   26.4000000  
H 22.7750000   15.2410000   28.5840000  
H 21.6710000   15.6730000   29.8680000  
H 21.8730000   15.8510000   21.9380000  
C 20.3660000   16.7800000   23.6010000  
C 20.2110000   18.1830000   23.5970000  
C 19.2270000   18.8240000   22.9430000  
C 18.3210000   18.1580000   22.0500000  
C 18.5290000   16.7660000   21.9600000  
C 19.4740000   16.0370000   22.7540000  
C 21.0000000   19.1960000   24.2400000  
C 20.3880000   20.4060000   23.9170000  
N 19.3340000   20.1650000   22.9990000  
O 21.9150000   21.7180000   25.1500000  
C 20.8710000   21.7160000   24.3210000  
O 20.5170000   22.7970000   23.8880000  
O 17.7000000   16.1540000   21.0720000  
O 19.5440000   14.6890000   22.7630000  
H 21.9720000   19.0010000   24.7630000  
H 22.1020000   20.8420000   25.3920000  
H 18.8120000   20.7970000   22.3660000  
H 17.3120000   16.8770000   20.5380000  
H 19.0090000   14.2110000   22.0740000  
C 17.2720000   18.9720000   21.3450000  
C 17.1320000   19.0130000   19.9600000  
C 16.1310000   19.7170000   19.3410000  
C 15.1290000   20.5080000   19.9540000  
C 15.2170000   20.3720000   21.3480000  
C 16.2680000   19.6300000   22.0470000  
C 17.9000000   18.3810000   18.9110000  
C 17.2530000   18.6610000   17.7380000  
N 16.2090000   19.4970000   17.9880000  
O 18.8610000   17.7180000   16.3360000  
C 17.6150000   18.2480000   16.3530000  
O 16.9610000   18.2090000   15.3280000  
O 14.2340000   21.0620000   22.1010000  
O 16.1720000   19.6500000   23.3890000  
H 18.8410000   17.7950000   19.0590000  
H 18.9690000   17.5880000   17.2900000  
H 15.7660000   20.0840000   17.3110000  
H 13.7830000   21.5940000   21.4590000  
H 16.8510000   19.0020000   23.6800000  
C 13.9790000   21.0980000   19.2010000  
C 13.0870000   20.3150000   18.4710000  
C 11.9890000   20.8200000   17.8490000  
C 11.5760000   22.1360000   18.1160000  
C 12.3920000   22.9330000   18.8540000  
C 13.6210000   22.4930000   19.4420000  
C 13.1770000   18.9150000   18.0130000  
C 11.9950000   18.6250000   17.2900000  
N 11.3070000   19.8610000   17.1720000  
O 12.5940000   16.3490000   16.8750000  
C 11.7280000   17.4030000   16.6360000  
O 10.7810000   17.3320000   15.9500000  
O 12.0010000   24.1850000   19.2400000  
O 14.4580000   23.3430000   20.0660000  
H 14.0080000   18.2170000   18.2530000  
H 13.1980000   16.6650000   17.5580000  
H 10.5690000   20.0260000   16.5600000  
H 12.8030000   24.6840000   19.6230000  
H 15.2220000   22.8600000   20.3100000  
H 10.7300000   22.5380000   17.5630000  
