76
011 
C 21.0400000   12.3870000   24.6300000  
C 21.5720000   11.6190000   23.5070000  
C 21.1980000   12.0690000   22.2170000  
C 20.5790000   13.3250000   21.9290000  
C 19.9990000   14.0380000   23.0310000  
C 20.2360000   13.6140000   24.3160000  
C 21.6170000   11.5940000   20.9540000  
C 21.2390000   12.5480000   20.0560000  
N 20.5870000   13.6330000   20.6230000  
O 22.2310000   11.4610000   18.2070000  
C 21.5690000   12.5480000   18.6120000  
O 21.1840000   13.3540000   17.7960000  
O 19.5900000   14.0740000   25.4100000  
O 21.2350000   12.0200000   25.7800000  
H 22.2640000   10.8370000   23.7290000  
H 22.1450000   10.6620000   20.9040000  
H 22.4890000   10.9790000   19.0520000  
H 19.8720000   13.4810000   26.2130000  
C 19.2840000   15.3260000   22.7980000  
C 18.0780000   15.4430000   22.0790000  
C 17.4130000   16.6510000   21.9090000  
C 17.9840000   17.8430000   22.3070000  
C 19.1880000   17.7470000   23.0970000  
C 19.8380000   16.5180000   23.3090000  
C 17.3410000   14.5050000   21.2550000  
C 16.2350000   15.1440000   20.6660000  
N 16.3810000   16.4820000   20.9840000  
O 15.2310000   13.2770000   19.6370000  
C 15.1910000   14.5900000   19.7240000  
O 14.4290000   15.2540000   19.0780000  
O 19.7980000   18.9400000   23.3770000  
O 20.9860000   16.4800000   24.0970000  
H 17.6160000   13.4590000   21.0810000  
H 16.0160000   13.0850000   20.1940000  
H 15.6360000   17.1240000   20.6940000  
H 19.3250000   19.7310000   23.0200000  
H 21.2700000   17.3850000   24.2120000  
C 17.3230000   19.1330000   21.8910000  
C 16.8590000   20.0120000   22.8980000  
C 16.2710000   21.1710000   22.5830000  
C 15.9900000   21.6350000   21.3400000  
C 16.3520000   20.7500000   20.2700000  
C 17.1110000   19.5910000   20.5480000  
C 16.6420000   19.8430000   24.3380000  
C 16.2090000   21.0570000   24.8180000  
N 15.9620000   21.8810000   23.7450000  
O 16.2340000   20.4780000   27.1770000  
C 15.9430000   21.4250000   26.2040000  
O 15.4290000   22.4560000   26.5160000  
O 16.0130000   21.1660000   19.0270000  
O 17.3160000   18.7590000   19.5190000  
H 16.8060000   18.8840000   24.9180000  
H 16.6140000   19.7840000   26.6600000  
H 15.6420000   22.8680000   23.8720000  
H 15.3190000   21.7750000   19.1520000  
H 17.1060000   19.2600000   18.7590000  
C 15.2730000   22.9410000   21.1810000  
C 15.8580000   23.9790000   20.5890000  
C 15.1920000   25.1240000   20.2760000  
C 13.8800000   25.3720000   20.8310000  
C 13.3050000   24.3580000   21.6140000  
C 13.9500000   23.0810000   21.6850000  
C 17.1030000   24.1170000   19.8800000  
C 17.1750000   25.3540000   19.2800000  
N 15.9220000   25.9240000   19.4350000  
O 19.4180000   25.0240000   18.5600000  
C 18.3840000   25.9750000   18.6710000  
O 18.4820000   27.1230000   18.3660000  
O 12.0220000   24.5710000   22.0370000  
O 13.3530000   22.0210000   22.2720000  
H 17.9320000   23.4080000   20.0030000  
H 19.0590000   24.1210000   18.6260000  
H 15.6360000   26.8280000   19.2730000  
H 11.7280000   23.6690000   22.3450000  
H 13.9700000   21.2730000   22.2790000  
H 13.3000000   26.2230000   20.5770000  
