76
011 
C 19.2390000   11.3250000   21.8140000  
C 18.2620000   10.7740000   20.8500000  
C 17.6260000   11.5590000   19.9080000  
C 17.7340000   12.9710000   19.9480000  
C 18.5940000   13.5820000   20.9110000  
C 19.2050000   12.7740000   21.8250000  
C 16.6160000   11.2700000   19.0000000  
C 16.1480000   12.4780000   18.4590000  
N 16.8930000   13.5380000   19.0860000  
O 14.3260000   11.4670000   17.2970000  
C 14.9890000   12.6310000   17.5450000  
O 14.5880000   13.6310000   16.9940000  
O 19.9390000   13.3180000   22.8270000  
O 19.8490000   10.6350000   22.5880000  
H 18.1360000    9.6520000   20.8460000  
H 16.1810000   10.2910000   18.8780000  
H 14.7800000   10.7600000   17.7990000  
H 20.2110000   12.6140000   23.3740000  
C 18.3190000   15.0040000   21.1420000  
C 17.4890000   15.3970000   22.1900000  
C 17.2420000   16.7060000   22.3880000  
C 17.7480000   17.7480000   21.5870000  
C 18.5840000   17.3640000   20.5540000  
C 18.8830000   16.0320000   20.2560000  
C 16.7290000   14.6490000   23.1580000  
C 16.0530000   15.6010000   23.9480000  
N 16.4840000   16.8970000   23.5220000  
O 14.7340000   13.9440000   25.1630000  
C 15.0120000   15.2640000   24.9660000  
O 14.3940000   16.0550000   25.6010000  
O 19.2820000   18.3240000   19.8660000  
O 19.5160000   15.6390000   19.0810000  
H 16.5820000   13.5590000   23.1660000  
H 15.1730000   13.6470000   24.3620000  
H 16.0850000   17.7580000   23.7870000  
H 19.2190000   19.1860000   20.2270000  
H 19.5540000   16.3390000   18.5260000  
C 17.5060000   19.1490000   21.8470000  
C 18.4520000   19.8990000   22.5390000  
C 18.2500000   21.2240000   22.7070000  
C 17.0640000   21.9540000   22.3750000  
C 16.0290000   21.1840000   21.8320000  
C 16.2340000   19.7960000   21.5850000  
C 19.7640000   19.5510000   23.0310000  
C 20.3590000   20.7360000   23.4790000  
N 19.3670000   21.7750000   23.3420000  
O 22.2550000   19.5990000   24.1180000  
C 21.7280000   20.8410000   23.9320000  
O 22.4490000   21.8430000   24.1760000  
O 14.8460000   21.7180000   21.4870000  
O 15.2410000   19.0120000   21.0320000  
H 20.2090000   18.5830000   23.1880000  
H 21.6040000   19.0000000   23.7380000  
H 19.5030000   22.7640000   23.5450000  
H 14.9050000   22.6330000   21.7020000  
H 14.5300000   19.5980000   20.7780000  
C 16.9100000   23.4110000   22.7090000  
C 17.6670000   24.3830000   22.0440000  
C 17.4550000   25.7160000   22.2310000  
C 16.4780000   26.2380000   23.0540000  
C 15.6210000   25.2860000   23.7330000  
C 15.9300000   23.9110000   23.5590000  
C 18.5930000   24.2430000   20.9780000  
C 18.9520000   25.5550000   20.5400000  
N 18.3500000   26.4260000   21.4040000  
O 20.3670000   24.9970000   18.6980000  
C 19.7420000   25.9720000   19.3400000  
O 19.9590000   27.0970000   18.9770000  
O 14.7140000   25.7060000   24.6640000  
O 15.4060000   22.9820000   24.4320000  
H 18.8500000   23.3220000   20.4790000  
H 19.8110000   24.2030000   18.8180000  
H 18.3510000   27.4350000   21.3230000  
H 14.3710000   24.8740000   25.1300000  
H 15.9480000   22.1470000   24.3270000  
H 16.2890000   27.3190000   23.2900000  
