76
011 
C 17.6100000   23.5580000   27.3240000  
C 18.5280000   22.9550000   28.3470000  
C 19.0640000   21.6810000   28.2480000  
C 18.9160000   20.9700000   27.0010000  
C 18.0850000   21.5450000   25.9410000  
C 17.4410000   22.7420000   26.1090000  
C 19.8180000   20.8210000   29.0350000  
C 20.0080000   19.6020000   28.3520000  
N 19.4640000   19.7080000   27.0690000  
O 21.4330000   18.9820000   30.1150000  
C 20.8540000   18.5690000   28.9440000  
O 21.1460000   17.5060000   28.4080000  
O 16.6640000   23.2190000   25.0390000  
O 17.0280000   24.5930000   27.5740000  
H 18.6050000   23.5920000   29.2540000  
H 20.1040000   21.0080000   30.1020000  
H 20.9660000   19.7790000   30.3600000  
H 17.2010000   22.7580000   24.3720000  
C 17.8840000   20.7360000   24.7230000  
C 16.7490000   19.9190000   24.5930000  
C 16.5450000   19.1920000   23.4360000  
C 17.4800000   18.9910000   22.4390000  
C 18.6760000   19.7780000   22.5850000  
C 18.8230000   20.6730000   23.7250000  
C 15.4780000   19.7920000   25.2890000  
C 14.6090000   18.9470000   24.5890000  
N 15.2520000   18.5670000   23.4260000  
O 12.9880000   19.3270000   26.1570000  
C 13.3150000   18.6270000   25.0650000  
O 12.4970000   17.8750000   24.5240000  
O 19.7220000   19.6530000   21.6540000  
O 19.9810000   21.5190000   23.7440000  
H 15.1890000   20.2940000   26.2480000  
H 13.8820000   19.6830000   26.5170000  
H 14.8360000   17.9010000   22.7370000  
H 19.3890000   19.1730000   20.8180000  
H 20.5140000   21.2530000   23.0280000  
C 17.3290000   18.0860000   21.2540000  
C 17.2670000   18.6070000   19.9810000  
C 17.2110000   17.8270000   18.8720000  
C 17.1770000   16.4120000   18.9090000  
C 17.2610000   15.8380000   20.1920000  
C 17.3590000   16.6760000   21.3370000  
C 17.3190000   20.0140000   19.4360000  
C 17.0890000   19.9440000   18.0580000  
N 17.1120000   18.5660000   17.7330000  
O 16.5370000   22.1970000   17.7840000  
C 16.7980000   21.0380000   17.1410000  
O 16.7430000   20.9680000   15.9370000  
O 17.4480000   14.4880000   20.3260000  
O 17.4620000   16.0880000   22.6000000  
H 17.2540000   20.9410000   19.9430000  
H 16.4300000   21.9600000   18.6990000  
H 16.9200000   18.2230000   16.8330000  
H 16.7520000   14.0030000   19.8380000  
H 17.3710000   16.7200000   23.3630000  
C 17.0270000   15.5800000   17.5770000  
C 18.0490000   15.4440000   16.6270000  
C 17.8470000   14.7060000   15.5010000  
C 16.7550000   13.9120000   15.3270000  
C 15.7350000   13.9230000   16.3000000  
C 15.8140000   14.8180000   17.3980000  
C 19.2380000   16.1980000   16.4790000  
C 19.8700000   15.6890000   15.3780000  
N 18.9580000   14.8100000   14.7430000  
O 21.9140000   16.8380000   15.7700000  
C 21.3010000   15.9930000   14.9470000  
O 21.8430000   15.4430000   13.9870000  
O 14.6300000   13.1230000   16.0900000  
O 14.7030000   15.0370000   18.2260000  
H 19.5820000   16.9580000   17.2180000  
H 21.2870000   17.1120000   16.4190000  
H 19.2650000   14.2580000   13.9460000  
H 14.0950000   13.1330000   16.9300000  
H 14.8370000   15.8490000   18.6980000  
H 16.6200000   13.2030000   14.5370000  
