76
011 
C 15.1490000   11.5220000   21.4430000  
C 14.0570000   11.4800000   20.3860000  
C 13.7500000   12.6370000   19.7110000  
C 14.4690000   13.8640000   19.8290000  
C 15.4940000   13.9010000   20.8530000  
C 15.7690000   12.8460000   21.7210000  
C 12.7970000   12.8290000   18.7080000  
C 13.0740000   14.1320000   18.2480000  
N 14.0940000   14.8080000   18.9600000  
O 11.2370000   14.1700000   16.7300000  
C 12.2950000   14.8490000   17.2010000  
O 12.6050000   15.9620000   16.8570000  
O 16.7790000   12.8100000   22.5600000  
O 15.3760000   10.4580000   22.0400000  
H 13.6620000   10.4470000   20.1920000  
H 12.1630000   12.1040000   18.3790000  
H 11.1800000   13.4430000   17.3830000  
H 17.3360000   13.6120000   22.3530000  
C 16.1460000   15.1860000   21.0800000  
C 15.4640000   16.2710000   21.6270000  
C 16.0870000   17.4800000   21.9170000  
C 17.4130000   17.8160000   21.5510000  
C 18.1180000   16.7480000   20.9580000  
C 17.4890000   15.4650000   20.7270000  
C 14.0970000   16.4330000   22.0920000  
C 14.0240000   17.6900000   22.6970000  
N 15.2700000   18.3680000   22.5360000  
O 11.6680000   17.5100000   23.1650000  
C 12.8210000   18.2810000   23.2050000  
O 12.8360000   19.3590000   23.7800000  
O 19.4500000   16.8220000   20.6700000  
O 18.2720000   14.4840000   20.1120000  
H 13.3270000   15.8290000   21.8730000  
H 11.9270000   16.7360000   22.6340000  
H 15.5280000   19.3390000   22.8640000  
H 19.6110000   17.7390000   20.4730000  
H 19.1270000   14.9170000   19.7720000  
C 18.0580000   19.1330000   21.7290000  
C 18.4610000   19.5500000   22.9990000  
C 19.0680000   20.7160000   23.1740000  
C 19.4430000   21.6440000   22.1620000  
C 19.1420000   21.1820000   20.8660000  
C 18.3510000   20.0140000   20.6230000  
C 18.3360000   18.9250000   24.2970000  
C 18.9990000   19.7660000   25.1370000  
N 19.3300000   20.8900000   24.4940000  
O 18.9140000   18.2390000   26.9220000  
C 19.3720000   19.4220000   26.5330000  
O 20.1140000   20.0660000   27.1970000  
O 19.4120000   21.9180000   19.7390000  
O 18.1060000   19.5630000   19.3200000  
H 17.8790000   18.0190000   24.5030000  
H 18.4420000   17.9020000   26.1620000  
H 19.8810000   21.6890000   24.8380000  
H 19.8870000   22.7420000   20.0590000  
H 18.4190000   20.2140000   18.6680000  
C 20.1300000   22.8920000   22.4740000  
C 21.4970000   23.0790000   22.0230000  
C 22.2090000   24.1350000   22.5560000  
C 21.6310000   25.2050000   23.2550000  
C 20.2430000   25.0860000   23.6180000  
C 19.5310000   23.8850000   23.2390000  
C 22.3720000   22.3560000   21.0890000  
C 23.5900000   23.0680000   21.1150000  
N 23.5080000   24.1370000   22.0530000  
O 24.6250000   21.7040000   19.5520000  
C 24.7860000   22.7670000   20.3730000  
O 25.8200000   23.3790000   20.5580000  
O 19.6100000   26.0450000   24.2780000  
O 18.2280000   23.7060000   23.6910000  
H 22.1210000   21.6410000   20.3560000  
H 23.7360000   21.4020000   19.6180000  
H 24.1870000   24.9010000   22.2220000  
H 18.7220000   25.6450000   24.4870000  
H 18.0570000   22.7640000   23.4680000  
H 22.2810000   26.0580000   23.6250000  
