76
011 
C 17.1190000   11.6070000   18.7280000  
C 15.6800000   11.3430000   18.6690000  
C 14.8040000   12.2800000   19.2070000  
C 15.2480000   13.4510000   19.9300000  
C 16.5970000   13.6520000   20.0750000  
C 17.5140000   12.8420000   19.4120000  
C 13.4190000   12.3880000   19.1850000  
C 13.1480000   13.5590000   19.8380000  
N 14.2760000   14.2000000   20.3630000  
O 10.7370000   13.4650000   19.4030000  
C 11.8100000   14.2040000   19.8370000  
O 11.6440000   15.3200000   20.3260000  
O 18.8670000   13.1810000   19.3130000  
O 17.9370000   10.9170000   18.1620000  
H 15.3370000   10.4850000   18.1020000  
H 12.7750000   11.8120000   18.5890000  
H 11.2510000   12.6600000   19.0380000  
H 19.2810000   12.6340000   18.6200000  
C 16.8680000   14.9820000   20.6430000  
C 16.8880000   15.2120000   21.9740000  
C 17.1580000   16.4800000   22.4910000  
C 17.5710000   17.5590000   21.6840000  
C 17.6260000   17.2950000   20.2720000  
C 17.1920000   16.0490000   19.7720000  
C 16.6420000   14.3840000   23.1010000  
C 16.7770000   15.2270000   24.2320000  
N 17.2440000   16.5110000   23.8910000  
O 16.3700000   13.4360000   25.7880000  
C 16.6470000   14.7360000   25.5940000  
O 16.7390000   15.4140000   26.5690000  
O 17.9210000   18.2590000   19.3730000  
O 17.0800000   15.9480000   18.4480000  
H 16.4050000   13.3150000   23.1060000  
H 16.6400000   12.9890000   24.9760000  
H 17.1260000   17.3060000   24.5300000  
H 18.0000000   19.0880000   19.8370000  
H 17.5450000   16.6910000   18.0890000  
C 17.7870000   18.9740000   22.2220000  
C 18.9990000   19.6250000   21.9480000  
C 19.1960000   20.9540000   22.2190000  
C 18.4130000   21.7550000   23.0350000  
C 17.1390000   21.1190000   23.3780000  
C 16.8370000   19.7910000   22.9250000  
C 20.2280000   19.0540000   21.4160000  
C 21.1110000   20.1020000   21.3920000  
N 20.4700000   21.2670000   21.8300000  
O 22.8450000   18.9460000   20.2790000  
C 22.5770000   20.0340000   20.9600000  
O 23.3840000   20.9120000   21.1480000  
O 16.1560000   21.8760000   24.0190000  
O 15.6960000   19.1480000   23.2640000  
H 20.3740000   18.0440000   21.0670000  
H 22.0340000   18.4330000   20.3190000  
H 20.9820000   22.1140000   21.8890000  
H 16.4840000   22.8230000   24.1410000  
H 15.2280000   19.7800000   23.9200000  
C 18.9590000   23.0630000   23.5180000  
C 19.3680000   24.1070000   22.6670000  
C 19.8220000   25.3130000   23.2520000  
C 19.8730000   25.5000000   24.6610000  
C 19.5400000   24.4580000   25.4630000  
C 19.0570000   23.2450000   24.9510000  
C 19.2560000   24.3280000   21.2250000  
C 19.4960000   25.6640000   21.0190000  
N 19.9090000   26.2020000   22.2620000  
O 18.9440000   25.7710000   18.6730000  
C 19.3570000   26.5080000   19.8000000  
O 19.5450000   27.7720000   19.7640000  
O 19.5370000   24.6910000   26.8350000  
O 18.5790000   22.2840000   25.8250000  
H 18.8630000   23.6650000   20.5310000  
H 19.1780000   24.8550000   18.9410000  
H 20.2070000   27.1560000   22.3810000  
H 19.0430000   23.9930000   27.2900000  
H 18.0350000   21.7400000   25.2490000  
H 20.1190000   26.4810000   24.9820000  
