76
011 
C 23.6070000   14.4730000   22.1570000  
C 23.8680000   14.0890000   23.5150000  
C 22.9460000   14.2580000   24.5160000  
C 21.6150000   14.7320000   24.2310000  
C 21.3340000   15.3100000   22.9240000  
C 22.2550000   15.1220000   21.8790000  
C 22.8940000   13.8020000   25.8790000  
C 21.6300000   14.1660000   26.3390000  
N 20.8490000   14.7880000   25.3310000  
O 22.0710000   13.6160000   28.5020000  
C 21.1010000   13.9350000   27.6840000  
O 19.9430000   14.2800000   28.0100000  
O 22.2390000   15.5650000   20.6250000  
O 24.5240000   14.4370000   21.3330000  
H 24.8890000   13.8470000   23.7180000  
H 23.7340000   13.3200000   26.4770000  
H 22.8560000   13.6550000   27.9980000  
H 21.4210000   16.0800000   20.5310000  
C 20.0210000   15.9670000   22.7660000  
C 19.6260000   17.0800000   23.5470000  
C 18.4420000   17.7140000   23.2390000  
C 17.6060000   17.4490000   22.0780000  
C 18.0550000   16.3420000   21.2660000  
C 19.1320000   15.5040000   21.7170000  
C 20.2480000   17.7510000   24.6450000  
C 19.4690000   18.7980000   24.9460000  
N 18.3320000   18.8020000   24.0660000  
O 20.7860000   19.4890000   26.8220000  
C 19.7470000   19.7270000   26.0370000  
O 19.0590000   20.6760000   26.2360000  
O 17.4280000   15.9520000   20.1710000  
O 19.3820000   14.3200000   21.0880000  
H 21.2230000   17.5500000   24.9700000  
H 21.2570000   18.6680000   26.5250000  
H 17.6480000   19.5490000   23.9920000  
H 16.5350000   16.3370000   20.1390000  
H 19.5090000   13.5660000   21.7200000  
C 16.5320000   18.4010000   21.6550000  
C 16.8080000   19.6660000   21.0780000  
C 15.8190000   20.4650000   20.6820000  
C 14.4530000   20.1680000   20.7010000  
C 14.1250000   18.9830000   21.3940000  
C 15.1640000   18.1190000   21.8430000  
C 18.0480000   20.4130000   20.8030000  
C 17.6510000   21.6360000   20.2130000  
N 16.2550000   21.6730000   20.1870000  
O 19.8360000   22.4790000   19.7220000  
C 18.5230000   22.7340000   19.6830000  
O 18.0610000   23.7440000   19.2090000  
O 12.8140000   18.6590000   21.5690000  
O 14.8450000   17.0040000   22.6030000  
H 19.0160000   20.0360000   21.0120000  
H 19.8420000   21.8010000   20.3430000  
H 15.5920000   22.3130000   19.7920000  
H 12.3140000   19.3690000   21.0510000  
H 15.6460000   16.6400000   23.1270000  
C 13.3910000   20.9730000   20.0050000  
C 13.3180000   21.1150000   18.5630000  
C 12.4650000   22.0110000   17.9770000  
C 11.5470000   22.8040000   18.7460000  
C 11.5900000   22.7250000   20.1510000  
C 12.5040000   21.7850000   20.7510000  
C 14.2170000   20.5910000   17.5140000  
C 13.8490000   21.3000000   16.3680000  
N 12.6360000   21.9890000   16.6120000  
O 15.6020000   20.5060000   14.9240000  
C 14.4880000   21.2870000   15.0110000  
O 13.9660000   21.8400000   14.0760000  
O 10.7340000   23.5460000   20.8890000  
O 12.6070000   21.7960000   22.0870000  
H 15.0750000   19.9510000   17.6210000  
H 15.5680000   19.9940000   15.7620000  
H 12.0490000   22.4360000   15.9220000  
H 10.9460000   23.5140000   21.8410000  
H 13.4370000   21.3340000   22.3860000  
H 10.9330000   23.5280000   18.2570000  
