76
011 
C 10.3070000   19.7350000   22.5050000  
C  9.8080000   18.8860000   23.6110000  
C 10.6770000   17.9850000   24.1770000  
C 12.0010000   17.9600000   23.8690000  
C 12.6020000   18.8470000   22.9110000  
C 11.7550000   19.7080000   22.2870000  
C 10.4750000   17.0570000   25.1860000  
C 11.6830000   16.3600000   25.3110000  
N 12.6110000   16.9740000   24.4940000  
O 10.9840000   14.7810000   26.9090000  
C 11.9760000   15.2100000   26.1260000  
O 13.0840000   14.7210000   26.1710000  
O 12.1070000   20.5400000   21.3150000  
O  9.4770000   20.4510000   21.9760000  
H  8.7600000   19.0350000   23.9280000  
H  9.4990000   16.8120000   25.6220000  
H 10.1810000   15.3430000   26.8550000  
H 11.2790000   20.8950000   20.9060000  
C 14.0300000   18.7360000   22.6240000  
C 14.5580000   17.7170000   21.7760000  
C 15.8960000   17.7510000   21.4420000  
C 16.8760000   18.6030000   21.9270000  
C 16.4050000   19.4340000   22.9540000  
C 14.9720000   19.6350000   23.1740000  
C 13.9720000   16.7190000   20.9180000  
C 14.9900000   16.2990000   20.0250000  
N 16.1280000   16.9390000   20.3830000  
O 13.5140000   14.8510000   18.8530000  
C 14.8370000   15.2890000   18.9470000  
O 15.8070000   14.8910000   18.3130000  
O 17.2510000   20.2660000   23.6060000  
O 14.5390000   20.6460000   24.0170000  
H 12.9350000   16.4710000   20.9050000  
H 13.0250000   15.2910000   19.5680000  
H 17.0290000   16.6770000   20.0910000  
H 18.2210000   19.8480000   23.4280000  
H 15.1940000   20.8780000   24.6750000  
C 18.3200000   18.6520000   21.4440000  
C 18.8580000   19.7640000   20.7690000  
C 20.1660000   19.8280000   20.3110000  
C 21.0330000   18.7410000   20.4200000  
C 20.5430000   17.6350000   21.1030000  
C 19.2170000   17.5520000   21.5350000  
C 18.3570000   21.1050000   20.6610000  
C 19.4050000   21.8400000   20.0750000  
N 20.5300000   21.0700000   19.8430000  
O 18.1840000   23.8800000   20.2100000  
C 19.2860000   23.2420000   19.8560000  
O 20.1630000   23.8600000   19.3300000  
O 21.3490000   16.5980000   21.4640000  
O 18.7550000   16.3550000   22.0320000  
H 17.4080000   21.4240000   20.7570000  
H 17.6080000   23.3300000   20.6600000  
H 21.5080000   21.3320000   19.6340000  
H 22.3090000   16.9390000   21.3410000  
H 19.5500000   15.8120000   22.3280000  
C 22.4700000   18.8110000   19.9650000  
C 23.6130000   18.6280000   20.8450000  
C 24.8880000   18.6190000   20.4570000  
C 25.2330000   18.7340000   19.1090000  
C 24.2020000   18.8810000   18.1390000  
C 22.8570000   18.9430000   18.5810000  
C 23.7420000   18.6080000   22.3200000  
C 25.0580000   18.4530000   22.7160000  
N 25.8100000   18.5960000   21.5380000  
O 24.4920000   18.2940000   24.9620000  
C 25.5280000   18.2660000   24.0810000  
O 26.6910000   18.0570000   24.3750000  
O 24.5700000   18.9370000   16.8380000  
O 21.8250000   18.9620000   17.7210000  
H 22.8800000   18.3830000   22.9530000  
H 23.7600000   18.4390000   24.3860000  
H 26.7410000   18.7800000   21.4730000  
H 23.8280000   18.6000000   16.3530000  
H 20.9860000   18.9720000   18.2970000  
H 26.2230000   18.5820000   18.7630000  
