76
011 
C 24.0180000   17.6270000   25.7930000  
C 23.4920000   16.9440000   26.9830000  
C 22.0980000   16.8980000   27.2010000  
C 21.1390000   17.4470000   26.3430000  
C 21.5760000   18.0410000   25.1290000  
C 22.9350000   18.0880000   24.7770000  
C 21.3640000   16.1590000   28.1570000  
C 20.0560000   16.3120000   27.7540000  
N 19.9150000   17.1110000   26.6390000  
O 19.2560000   15.0070000   29.5440000  
C 18.9120000   15.8480000   28.5060000  
O 17.7130000   16.0540000   28.2700000  
O 23.3730000   18.7240000   23.6600000  
O 25.2260000   17.7950000   25.5720000  
H 24.2310000   16.6090000   27.6760000  
H 21.6640000   15.5840000   29.0450000  
H 20.2020000   14.7980000   29.4340000  
H 22.5680000   19.0210000   23.1860000  
C 20.5620000   18.3080000   24.0970000  
C 19.6970000   19.3860000   24.2410000  
C 18.7140000   19.5660000   23.3250000  
C 18.5380000   18.7480000   22.1760000  
C 19.5170000   17.7220000   22.0350000  
C 20.4100000   17.4240000   23.0480000  
C 19.5640000   20.4550000   25.1770000  
C 18.5330000   21.2280000   24.7700000  
N 17.9760000   20.6720000   23.5770000  
O 18.4980000   22.7800000   26.6870000  
C 18.0480000   22.5140000   25.4340000  
O 17.2160000   23.2520000   24.9400000  
O 19.3300000   16.8690000   20.9860000  
O 21.3550000   16.4340000   22.9360000  
H 20.2610000   20.6630000   25.9860000  
H 18.9590000   21.9350000   27.0180000  
H 17.3300000   21.1350000   22.9940000  
H 18.4500000   17.0100000   20.6690000  
H 21.0410000   16.0120000   22.0830000  
C 17.2940000   18.8340000   21.2840000  
C 17.3730000   19.2350000   19.9720000  
C 16.2440000   19.4020000   19.1900000  
C 14.9660000   19.0940000   19.5470000  
C 14.8260000   18.7070000   20.8890000  
C 15.9390000   18.6050000   21.7880000  
C 18.4580000   19.5150000   19.1250000  
C 17.9300000   19.8200000   17.8810000  
N 16.5420000   19.6800000   17.8820000  
O 20.0800000   20.4230000   16.9110000  
C 18.7520000   20.3730000   16.7690000  
O 18.2270000   20.6390000   15.6920000  
O 13.5930000   18.3710000   21.3700000  
O 15.7700000   18.3760000   23.1760000  
H 19.4630000   19.7280000   19.4440000  
H 20.2390000   20.2870000   17.8400000  
H 15.9430000   20.0410000   17.1950000  
H 12.9460000   18.5380000   20.6390000  
H 16.6460000   18.4920000   23.6760000  
C 13.8730000   19.1050000   18.6100000  
C 13.6520000   18.1350000   17.6240000  
C 12.6540000   18.2990000   16.6680000  
C 11.7770000   19.3550000   16.6240000  
C 11.9650000   20.4060000   17.5880000  
C 13.0370000   20.2400000   18.5170000  
C 14.4590000   16.9940000   17.3140000  
C 13.9010000   16.4060000   16.1550000  
N 12.8920000   17.2340000   15.7730000  
O 15.1000000   14.4180000   16.1390000  
C 14.1300000   15.1070000   15.5460000  
O 13.5830000   14.6950000   14.5610000  
O 11.1700000   21.5150000   17.5580000  
O 13.3330000   21.2180000   19.3980000  
H 15.0390000   16.4630000   18.0920000  
H 15.4570000   14.9920000   16.8340000  
H 12.3390000   17.1200000   14.9640000  
H 11.3940000   22.1360000   18.2260000  
H 14.1330000   20.9950000   19.9380000  
H 11.0490000   19.5660000   15.8680000  
