76
011 
C 16.3690000   23.8570000   26.9670000  
C 16.9840000   23.3370000   28.1610000  
C 17.7290000   22.2100000   28.0580000  
C 17.9540000   21.4520000   26.9150000  
C 17.3470000   21.9230000   25.7050000  
C 16.5960000   23.0760000   25.6990000  
C 18.4510000   21.4910000   29.0150000  
C 19.0090000   20.3900000   28.3490000  
N 18.5920000   20.3520000   27.0690000  
O 19.9140000   19.5090000   30.2840000  
C 19.7100000   19.2840000   28.9570000  
O 20.0180000   18.2200000   28.4620000  
O 15.8480000   23.4650000   24.6980000  
O 15.6270000   24.7750000   26.9950000  
H 16.8970000   23.9620000   29.0750000  
H 18.5940000   21.7960000   30.0820000  
H 19.7870000   20.4570000   30.3780000  
H 16.0540000   22.9290000   23.9040000  
C 17.3320000   21.1030000   24.4640000  
C 16.5830000   19.9530000   24.4350000  
C 16.7260000   19.0940000   23.3870000  
C 17.5150000   19.2480000   22.2340000  
C 18.2670000   20.4420000   22.2530000  
C 18.0890000   21.4110000   23.3470000  
C 15.5800000   19.4090000   25.3310000  
C 15.0430000   18.3060000   24.6250000  
N 15.8040000   18.0770000   23.4680000  
O 13.5220000   17.5280000   26.3110000  
C 14.0450000   17.3070000   25.0740000  
O 13.4850000   16.4670000   24.4010000  
O 19.2100000   20.7530000   21.2540000  
O 18.7590000   22.6310000   23.2240000  
H 15.1720000   19.8130000   26.2570000  
H 13.8140000   18.4540000   26.5630000  
H 15.5800000   17.3410000   22.8350000  
H 19.0140000   20.0340000   20.5640000  
H 19.6390000   22.5280000   22.8640000  
C 17.6430000   18.1540000   21.1610000  
C 17.2020000   18.4500000   19.8600000  
C 17.1840000   17.4770000   18.9110000  
C 17.6030000   16.1560000   19.0650000  
C 18.0730000   15.8060000   20.3150000  
C 18.1110000   16.7960000   21.4010000  
C 16.7510000   19.6450000   19.1630000  
C 16.5120000   19.2440000   17.8120000  
N 16.8460000   17.9210000   17.6770000  
O 15.8060000   21.4050000   16.9890000  
C 16.0200000   20.0950000   16.7350000  
O 15.9010000   19.6150000   15.5920000  
O 18.5540000   14.5170000   20.5110000  
O 18.4960000   16.3580000   22.6670000  
H 16.6120000   20.6290000   19.5720000  
H 16.0310000   21.5490000   17.9230000  
H 16.7990000   17.5040000   16.7110000  
H 18.4120000   14.0310000   19.6480000  
H 18.5250000   17.1530000   23.2210000  
C 17.8480000   15.2830000   17.9360000  
C 18.8600000   15.4840000   17.0950000  
C 19.2020000   14.6680000   16.0640000  
C 18.4950000   13.4450000   15.8770000  
C 17.3440000   13.1870000   16.6840000  
C 17.0440000   14.1880000   17.6100000  
C 19.8770000   16.5330000   16.9810000  
C 20.7370000   16.3090000   15.9170000  
N 20.2560000   15.0950000   15.3290000  
O 22.4220000   17.9160000   16.3480000  
C 21.9400000   16.9780000   15.4450000  
O 22.4740000   16.7350000   14.3900000  
O 16.4500000   12.1490000   16.5000000  
O 15.8820000   13.9540000   18.3940000  
H 20.0390000   17.3830000   17.6940000  
H 21.8290000   17.8540000   17.0730000  
H 20.7840000   14.6170000   14.6290000  
H 15.7240000   12.1470000   17.1030000  
H 15.6450000   14.8280000   18.6360000  
H 18.8070000   12.7330000   15.1310000  
