76
011 
C 12.3480000   13.2400000   22.8450000  
C 11.6100000   13.3700000   21.5190000  
C 12.2070000   14.0760000   20.4710000  
C 13.3920000   14.8060000   20.6300000  
C 14.0640000   14.8080000   21.8840000  
C 13.5470000   14.0950000   22.9820000  
C 11.8370000   14.2170000   19.1460000  
C 12.7570000   15.1290000   18.6000000  
N 13.7270000   15.4760000   19.5210000  
O 11.7820000   15.1070000   16.3000000  
C 12.7130000   15.5560000   17.1770000  
O 13.5250000   16.3250000   16.7340000  
O 14.0280000   14.0990000   24.2530000  
O 11.9820000   12.5590000   23.7690000  
H 10.6150000   12.8650000   21.4120000  
H 10.8620000   13.8410000   18.6620000  
H 11.1280000   14.6140000   16.8070000  
H 15.0270000   14.2720000   24.2420000  
C 15.1650000   15.6560000   22.1060000  
C 14.9700000   17.0210000   21.9580000  
C 16.0120000   17.9270000   22.0100000  
C 17.3540000   17.5460000   22.2220000  
C 17.6110000   16.1610000   22.3060000  
C 16.5440000   15.2680000   22.3280000  
C 13.7810000   17.7760000   21.6210000  
C 14.2270000   19.0860000   21.3210000  
N 15.6320000   19.1920000   21.6120000  
O 12.0990000   19.8640000   21.0080000  
C 13.3850000   20.2720000   21.1450000  
O 13.8190000   21.3920000   21.0790000  
O 18.9450000   15.8130000   22.4130000  
O 16.8270000   13.9380000   22.6900000  
H 12.7850000   17.4190000   21.3810000  
H 12.1870000   18.9170000   21.0560000  
H 16.1110000   20.0660000   21.6610000  
H 19.4780000   16.5980000   22.4380000  
H 16.0520000   13.4640000   22.2640000  
C 18.3640000   18.5860000   22.0400000  
C 18.7760000   19.3630000   23.1490000  
C 19.7520000   20.2720000   23.0140000  
C 20.1950000   20.7200000   21.7570000  
C 19.6230000   20.1230000   20.5930000  
C 18.8450000   18.9530000   20.7500000  
C 18.4760000   19.2420000   24.5250000  
C 19.4260000   20.0600000   25.1850000  
N 20.1920000   20.7700000   24.2400000  
O 18.8180000   19.5440000   27.4690000  
C 19.6140000   20.3130000   26.6850000  
O 20.3700000   21.0450000   27.1810000  
O 19.9840000   20.5400000   19.4020000  
O 18.2770000   18.3660000   19.6800000  
H 17.7490000   18.5910000   24.9560000  
H 18.3520000   18.9740000   26.8660000  
H 20.9370000   21.4370000   24.4640000  
H 20.7730000   20.9890000   19.4660000  
H 17.5550000   17.7900000   19.9330000  
C 21.1120000   21.8850000   21.6590000  
C 22.4670000   21.6600000   21.3960000  
C 23.3110000   22.7080000   21.2890000  
C 22.8840000   24.0470000   21.4320000  
C 21.4810000   24.2600000   21.6640000  
C 20.5940000   23.2010000   21.7690000  
C 23.2160000   20.4750000   21.2170000  
C 24.5290000   20.8320000   21.1300000  
N 24.5670000   22.1800000   21.2890000  
O 25.3860000   18.6330000   20.8880000  
C 25.6980000   19.9550000   20.8960000  
O 26.7890000   20.4100000   20.6530000  
O 20.9790000   25.5350000   21.7710000  
O 19.3120000   23.4550000   22.1240000  
H 22.8160000   19.4640000   21.1670000  
H 24.4800000   18.6100000   21.0990000  
H 25.3400000   22.7910000   21.2400000  
H 20.0830000   25.4310000   22.0480000  
H 18.8890000   22.5990000   22.3480000  
H 23.6200000   24.8690000   21.3640000  
