76
011 
C 21.0280000   14.5860000   26.9880000  
C 21.5940000   15.5310000   27.9630000  
C 21.2870000   16.8630000   27.7820000  
C 20.7320000   17.4050000   26.6260000  
C 20.2410000   16.5620000   25.6400000  
C 20.3820000   15.2280000   25.7440000  
C 21.5610000   17.9800000   28.6100000  
C 21.1570000   19.0890000   27.8630000  
N 20.6430000   18.7160000   26.6000000  
O 21.5800000   20.6030000   29.6190000  
C 21.2700000   20.4890000   28.3540000  
O 20.8770000   21.3660000   27.6600000  
O 20.0090000   14.3910000   24.7870000  
O 21.0420000   13.3620000   27.2230000  
H 22.0400000   15.1710000   28.9320000  
H 22.1380000   17.9370000   29.5480000  
H 21.6520000   19.6610000   29.9550000  
H 19.6500000   13.6470000   25.2190000  
C 19.4950000   17.1690000   24.5300000  
C 20.2500000   17.5800000   23.4090000  
C 19.5910000   18.2700000   22.3760000  
C 18.2590000   18.5350000   22.3870000  
C 17.5000000   18.1820000   23.5440000  
C 18.1510000   17.4880000   24.5600000  
C 21.6190000   17.3670000   22.9490000  
C 21.6210000   17.8410000   21.6380000  
N 20.3710000   18.3040000   21.2900000  
O 23.9110000   17.5030000   21.3720000  
C 22.8060000   17.9800000   20.7780000  
O 22.8360000   18.4350000   19.6330000  
O 16.1780000   18.2960000   23.5940000  
O 17.4090000   17.2150000   25.6320000  
H 22.3530000   16.9120000   23.6360000  
H 23.6430000   16.8940000   22.0880000  
H 20.0290000   18.6670000   20.3620000  
H 15.8850000   18.8260000   22.8800000  
H 16.4920000   17.3380000   25.3160000  
C 17.5410000   19.1680000   21.2490000  
C 17.1040000   18.3800000   20.1550000  
C 16.2670000   18.9450000   19.2430000  
C 15.9030000   20.3420000   19.1970000  
C 16.3980000   21.1890000   20.2320000  
C 17.1720000   20.5540000   21.2730000  
C 17.3090000   17.0050000   19.8480000  
C 16.7110000   16.8080000   18.5930000  
N 15.9940000   17.9550000   18.2820000  
O 17.5860000   14.6240000   18.0900000  
C 16.8270000   15.6830000   17.7060000  
O 16.3860000   15.6840000   16.5750000  
O 15.9120000   22.4210000   20.3370000  
O 17.4950000   21.2350000   22.4040000  
H 18.0050000   16.3700000   20.4200000  
H 18.1870000   14.9160000   18.7430000  
H 15.4330000   18.1280000   17.4710000  
H 15.3530000   22.5210000   19.5950000  
H 17.1430000   22.2000000   22.4220000  
C 14.9510000   20.8340000   18.1420000  
C 13.7030000   20.1360000   17.8780000  
C 12.8530000   20.5800000   16.8970000  
C 13.0900000   21.7110000   16.1200000  
C 14.3170000   22.3770000   16.3100000  
C 15.2200000   21.9660000   17.3120000  
C 12.9770000   19.0620000   18.6090000  
C 11.7210000   18.8890000   17.9750000  
N 11.6600000   19.8150000   16.9460000  
O 10.7970000   17.2640000   19.5210000  
C 10.6340000   18.0430000   18.3990000  
O  9.5510000   18.1150000   17.8600000  
O 14.5930000   23.5760000   15.6120000  
O 16.4230000   22.6450000   17.4350000  
H 13.3190000   18.5250000   19.5150000  
H 11.7230000   17.4690000   19.7600000  
H 10.9770000   19.9470000   16.2820000  
H 15.0500000   24.1540000   16.1730000  
H 16.8270000   22.1430000   18.2380000  
H 12.3930000   22.1420000   15.4290000  
