76
100 
C 15.7970000   10.2630000   20.2130000  
C 14.4630000    9.7700000   20.5820000  
C 13.4570000   10.6430000   20.9940000  
C 13.7450000   11.9860000   21.1650000  
C 14.9800000   12.5530000   20.8370000  
C 15.9710000   11.7240000   20.3370000  
C 12.0500000   10.5100000   21.3320000  
C 11.6210000   11.8150000   21.6630000  
N 12.7260000   12.6860000   21.5690000  
O  9.4190000   11.0370000   22.0220000  
C 10.2640000   12.1680000   22.0150000  
O  9.8730000   13.2880000   22.3530000  
O 17.1410000   12.1370000   19.9640000  
O 16.6630000    9.4870000   19.7990000  
H 14.2330000    8.7810000   20.4900000  
H 11.4330000    9.6490000   21.2660000  
H  9.9230000   10.2490000   21.7140000  
H 17.0880000   13.1310000   20.0860000  
C 15.1370000   13.9890000   20.8560000  
C 15.3060000   14.6780000   22.0700000  
C 15.5280000   16.0330000   22.1460000  
C 15.6870000   16.8440000   20.9690000  
C 15.4870000   16.1310000   19.7280000  
C 15.1410000   14.7430000   19.7150000  
C 15.2350000   14.2930000   23.5220000  
C 15.3050000   15.4430000   24.2400000  
N 15.5280000   16.5470000   23.4060000  
O 14.6620000   14.4640000   26.3520000  
C 15.0680000   15.5180000   25.6750000  
O 15.1440000   16.5540000   26.2270000  
O 15.6680000   16.8430000   18.5460000  
O 14.9630000   14.1440000   18.5110000  
H 15.0070000   13.3040000   23.9150000  
H 14.3510000   13.6870000   25.8520000  
H 15.6380000   17.5820000   23.6200000  
H 16.2760000   17.5520000   18.7900000  
H 14.8060000   14.8660000   17.8640000  
C 15.8900000   18.3280000   20.9830000  
C 16.9220000   18.9370000   21.7060000  
C 17.0340000   20.2980000   21.8410000  
C 16.0790000   21.2140000   21.3310000  
C 14.9750000   20.6110000   20.6750000  
C 14.8430000   19.1720000   20.5880000  
C 17.9530000   18.3180000   22.5050000  
C 18.5560000   19.3900000   23.1480000  
N 18.0040000   20.5880000   22.7790000  
O 19.6820000   18.2110000   24.8970000  
C 19.4540000   19.4110000   24.3310000  
O 19.9590000   20.4810000   24.7280000  
O 13.9820000   21.4130000   20.3310000  
O 13.6410000   18.7310000   20.1120000  
H 18.1570000   17.2520000   22.6300000  
H 18.9860000   17.5430000   24.6070000  
H 18.3360000   21.5560000   22.9950000  
H 14.0360000   22.2480000   20.8420000  
H 13.2010000   19.5990000   20.0700000  
C 16.2710000   22.6650000   21.6420000  
C 17.4480000   23.3660000   21.2140000  
C 17.6700000   24.7070000   21.4470000  
C 16.7580000   25.4610000   22.1780000  
C 15.6320000   24.8630000   22.6260000  
C 15.3410000   23.4960000   22.4060000  
C 18.5950000   22.8220000   20.5220000  
C 19.5140000   23.8400000   20.4770000  
N 18.8970000   24.9850000   20.9670000  
O 21.1020000   22.6180000   19.1630000  
C 20.8350000   23.8430000   19.8380000  
O 21.5120000   24.8430000   19.8290000  
O 14.8290000   25.6500000   23.3240000  
O 14.1490000   22.9700000   22.8570000  
H 18.7870000   21.8280000   20.1490000  
H 20.2940000   22.0530000   19.3790000  
H 19.4400000   25.8370000   21.1490000  
H 14.1470000   25.1490000   23.7700000  
H 14.1170000   22.0140000   22.6330000  
H 17.0270000   26.5310000   22.3300000  
