76
100 
C 16.5920000   10.4330000   24.1370000  
C 16.3900000   10.5570000   25.6260000  
C 16.3270000   11.8560000   26.1650000  
C 16.3090000   13.0470000   25.4160000  
C 16.4580000   12.9930000   24.0000000  
C 16.5020000   11.7630000   23.3740000  
C 16.0490000   12.2180000   27.5070000  
C 16.0860000   13.6610000   27.4730000  
N 16.1900000   14.1360000   26.1430000  
O 15.3760000   14.0280000   29.7190000  
C 15.9390000   14.6080000   28.5790000  
O 16.1340000   15.7930000   28.6570000  
O 16.5330000   11.6630000   21.9980000  
O 16.7000000    9.3810000   23.5530000  
H 16.5510000    9.6130000   26.1780000  
H 15.8220000   11.5700000   28.3740000  
H 15.1470000   13.2470000   29.3030000  
H 16.9680000   12.4750000   21.6880000  
C 16.3050000   14.2380000   23.2260000  
C 17.4230000   15.0710000   22.9730000  
C 17.2320000   16.2930000   22.3870000  
C 15.9580000   16.8430000   21.9960000  
C 14.8540000   16.0050000   22.2590000  
C 15.0190000   14.7180000   22.8160000  
C 18.8090000   14.9970000   23.4500000  
C 19.3950000   16.2390000   23.0510000  
N 18.4150000   17.0150000   22.4150000  
O 21.5790000   15.5280000   23.7410000  
C 20.8060000   16.5260000   23.1290000  
O 21.1970000   17.6270000   22.7380000  
O 13.6320000   16.4450000   22.0440000  
O 13.8360000   13.9980000   22.8860000  
H 19.2440000   14.1630000   24.0270000  
H 21.0690000   14.8030000   24.0120000  
H 18.5470000   17.8420000   21.8850000  
H 13.6960000   17.3500000   22.4310000  
H 13.2240000   14.5500000   22.3120000  
C 15.8110000   18.2490000   21.4560000  
C 16.2670000   18.5990000   20.1760000  
C 16.1460000   19.9000000   19.6740000  
C 15.4490000   20.9290000   20.2900000  
C 14.9690000   20.5530000   21.6020000  
C 15.1050000   19.2820000   22.0940000  
C 16.7670000   17.7930000   19.1130000  
C 17.0260000   18.6330000   18.0600000  
N 16.6410000   19.9100000   18.3990000  
O 17.8630000   16.9600000   16.6020000  
C 17.5550000   18.2720000   16.7730000  
O 17.9290000   19.0030000   15.8450000  
O 14.1920000   21.4650000   22.2960000  
O 14.5370000   18.9870000   23.3010000  
H 16.8100000   16.6910000   19.1540000  
H 17.8420000   16.6020000   17.5000000  
H 16.5800000   20.7180000   17.7780000  
H 14.1580000   22.2400000   21.7960000  
H 14.0720000   19.7310000   23.5630000  
C 15.0670000   22.2660000   19.6740000  
C 13.9250000   22.4030000   18.8120000  
C 13.5240000   23.6130000   18.2900000  
C 14.3230000   24.7000000   18.4630000  
C 15.4830000   24.5880000   19.2700000  
C 15.8120000   23.3930000   19.9250000  
C 12.8950000   21.4210000   18.4300000  
C 11.9130000   22.1260000   17.7240000  
N 12.4360000   23.3830000   17.3750000  
O 10.3410000   20.4300000   17.5660000  
C 10.6350000   21.6700000   17.1700000  
O  9.8990000   22.3370000   16.4670000  
O 16.2170000   25.7430000   19.4890000  
O 16.9630000   23.3640000   20.7420000  
H 12.8210000   20.3830000   18.8110000  
H 11.1400000   20.2040000   18.0870000  
H 11.9230000   24.1610000   16.9480000  
H 17.0720000   25.5190000   19.9740000  
H 17.1850000   22.4920000   21.1110000  
H 14.0630000   25.6660000   18.0530000  
