76
100 
C  9.9400000   18.3510000   25.7240000  
C  9.2780000   17.0710000   25.9010000  
C  9.6250000   16.0000000   25.1080000  
C 10.6160000   16.0220000   24.1370000  
C 11.3460000   17.2880000   23.9670000  
C 10.9640000   18.4180000   24.6370000  
C  9.0470000   14.7240000   25.0170000  
C  9.7670000   14.0820000   24.0110000  
N 10.7880000   14.8670000   23.5010000  
O  8.6350000   12.1120000   24.3190000  
C  9.5090000   12.7490000   23.4840000  
O  9.9870000   12.2360000   22.4490000  
O 11.6070000   19.6380000   24.5470000  
O  9.6490000   19.3460000   26.4070000  
H  8.4280000   16.9040000   26.6210000  
H  8.2860000   14.2750000   25.6490000  
H  8.6770000   12.7990000   24.9530000  
H 12.2160000   19.5380000   23.8150000  
C 12.5870000   17.2600000   23.1840000  
C 12.6440000   17.9210000   21.9410000  
C 13.7590000   18.0150000   21.1560000  
C 14.9660000   17.4520000   21.5960000  
C 14.9570000   16.6860000   22.7920000  
C 13.8270000   16.6940000   23.6320000  
C 11.6690000   18.6990000   21.1460000  
C 12.3520000   19.4010000   20.1160000  
N 13.6430000   18.8900000   20.0590000  
O 10.6800000   21.0200000   19.6850000  
C 11.9130000   20.5420000   19.3580000  
O 12.6620000   21.0710000   18.5260000  
O 16.0300000   15.9900000   23.1540000  
O 13.8590000   16.0800000   24.8790000  
H 10.6310000   18.7510000   21.3250000  
H 10.4040000   20.5080000   20.4010000  
H 14.4730000   19.2500000   19.5640000  
H 16.4190000   15.7520000   22.3060000  
H 14.8160000   15.7610000   24.9470000  
C 16.2420000   17.5850000   20.7970000  
C 17.1980000   18.3880000   21.3890000  
C 18.3980000   18.6220000   20.7950000  
C 18.7700000   17.9920000   19.6160000  
C 17.8510000   17.1770000   18.9980000  
C 16.5170000   17.0270000   19.5070000  
C 17.3230000   19.1790000   22.6070000  
C 18.5630000   19.7580000   22.6770000  
N 19.1920000   19.4350000   21.5560000  
O 18.4220000   20.8720000   24.8600000  
C 19.1670000   20.4620000   23.8460000  
O 20.3530000   20.7580000   23.7520000  
O 18.1510000   16.6990000   17.7400000  
O 15.6710000   16.1490000   18.9700000  
H 16.5810000   19.1800000   23.4280000  
H 17.6530000   20.3120000   24.8700000  
H 20.1300000   19.7330000   21.3560000  
H 18.7100000   17.4090000   17.3520000  
H 16.0090000   15.8850000   18.0690000  
C 20.1090000   18.2080000   19.0520000  
C 21.2150000   17.7990000   19.7490000  
C 22.4730000   17.7770000   19.1540000  
C 22.7580000   18.3290000   17.9210000  
C 21.6360000   18.7570000   17.1710000  
C 20.3390000   18.7080000   17.7290000  
C 21.3110000   17.2120000   21.0210000  
C 22.7090000   17.1180000   21.2540000  
N 23.4080000   17.4330000   20.1030000  
O 22.5820000   16.5010000   23.6080000  
C 23.4150000   16.7000000   22.5250000  
O 24.6170000   16.7480000   22.7340000  
O 21.8080000   19.1970000   15.8650000  
O 19.2900000   19.2370000   17.0010000  
H 20.4530000   16.9280000   21.6310000  
H 21.7520000   16.8340000   23.2450000  
H 24.3750000   17.2520000   19.9540000  
H 22.7470000   18.9490000   15.7030000  
H 19.6120000   19.9030000   16.3170000  
H 23.7860000   18.5050000   17.5980000  
