76
100 
C  9.7710000   18.5380000   26.2660000  
C 10.2920000   18.8440000   27.5860000  
C 11.6760000   18.9430000   27.7680000  
C 12.6400000   18.5780000   26.8100000  
C 12.1730000   18.1010000   25.5290000  
C 10.8110000   18.0920000   25.2970000  
C 12.4660000   19.3130000   28.8530000  
C 13.7350000   19.2690000   28.4480000  
N 13.8920000   18.8240000   27.1410000  
O 14.6900000   20.0010000   30.5320000  
C 14.9500000   19.6590000   29.2800000  
O 16.1110000   19.6270000   28.8780000  
O 10.2860000   17.6790000   24.1090000  
O  8.6000000   18.6260000   26.0030000  
H  9.5610000   19.1090000   28.4070000  
H 12.1620000   19.5530000   29.8380000  
H 13.7580000   19.9740000   30.7360000  
H 11.0570000   17.6750000   23.5040000  
C 13.1710000   17.8460000   24.3870000  
C 14.3090000   17.0280000   24.5460000  
C 15.3310000   17.0060000   23.5980000  
C 15.3270000   17.7380000   22.3920000  
C 14.1770000   18.5590000   22.2470000  
C 13.1290000   18.7110000   23.2530000  
C 14.8160000   16.2520000   25.6930000  
C 16.0960000   15.7710000   25.3420000  
N 16.3530000   16.2090000   24.0460000  
O 16.6530000   14.5600000   27.3590000  
C 17.0050000   14.9200000   26.1350000  
O 18.0440000   14.5330000   25.6590000  
O 13.9900000   19.2780000   21.0720000  
O 12.2000000   19.7120000   23.0990000  
H 14.2310000   16.0130000   26.5590000  
H 15.8770000   15.0390000   27.5300000  
H 17.0730000   15.8520000   23.4800000  
H 14.7470000   18.9970000   20.5820000  
H 12.4930000   19.9700000   22.1800000  
C 16.4200000   17.7090000   21.3070000  
C 16.3990000   16.7660000   20.2270000  
C 17.4110000   16.7300000   19.2610000  
C 18.4290000   17.7170000   19.1910000  
C 18.4500000   18.6380000   20.3030000  
C 17.4390000   18.6690000   21.2680000  
C 15.4070000   15.9020000   19.6530000  
C 15.8110000   15.4930000   18.3920000  
N 17.1840000   15.8660000   18.2310000  
O 13.7040000   14.6820000   17.5920000  
C 15.0650000   14.7640000   17.2860000  
O 15.5070000   14.3830000   16.2690000  
O 19.3980000   19.5780000   20.2600000  
O 17.4550000   19.6850000   22.1780000  
H 14.3840000   15.7780000   19.9650000  
H 13.5370000   14.9140000   18.5320000  
H 17.7190000   15.5470000   17.4530000  
H 20.0220000   19.3340000   19.5930000  
H 18.2070000   20.2880000   22.0160000  
C 19.4300000   17.7650000   18.0060000  
C 18.9710000   17.8700000   16.6660000  
C 19.8510000   17.8530000   15.6320000  
C 21.1910000   17.5390000   15.7820000  
C 21.7300000   17.3660000   17.0920000  
C 20.8830000   17.5620000   18.1760000  
C 17.6330000   18.1350000   16.2160000  
C 17.7120000   18.2770000   14.8220000  
N 19.0510000   18.0180000   14.5060000  
O 15.3430000   18.1370000   14.3970000  
C 16.5660000   18.3830000   13.8960000  
O 16.7660000   18.6420000   12.7140000  
O 23.0500000   17.0250000   17.2520000  
O 21.3990000   17.4580000   19.4720000  
H 16.8290000   18.1640000   16.9360000  
H 15.3950000   17.8840000   15.3230000  
H 19.2830000   18.0570000   13.5240000  
H 23.4400000   16.7490000   16.4460000  
H 22.3360000   17.1770000   19.4440000  
H 21.7910000   17.4470000   14.9090000  
