76
100 
C  8.4950000   16.7630000   22.6850000  
C  8.2710000   16.2320000   24.0690000  
C  9.3740000   16.1220000   24.8630000  
C 10.7440000   16.3360000   24.5090000  
C 10.9740000   16.9950000   23.2160000  
C  9.8820000   17.1760000   22.3580000  
C  9.4680000   15.6260000   26.2000000  
C 10.8070000   15.5450000   26.5410000  
N 11.6070000   16.1190000   25.5340000  
O 10.4180000   14.4460000   28.5490000  
C 11.3470000   14.9660000   27.7980000  
O 12.5520000   14.8930000   27.9510000  
O 10.0700000   17.5700000   21.0490000  
O  7.6080000   16.9260000   21.8390000  
H  7.3030000   15.8950000   24.3440000  
H  8.6430000   15.2010000   26.7250000  
H  9.6940000   14.9180000   28.0700000  
H 11.0690000   17.7350000   20.9600000  
C 12.3030000   17.3420000   22.7810000  
C 12.9870000   16.4750000   21.9470000  
C 14.2610000   16.7240000   21.5180000  
C 15.0660000   17.7750000   21.9600000  
C 14.4500000   18.5860000   22.9370000  
C 13.1050000   18.4010000   23.3120000  
C 12.4970000   15.2650000   21.3830000  
C 13.5400000   14.8170000   20.6220000  
N 14.6530000   15.7260000   20.6430000  
O 12.3960000   12.9520000   19.6180000  
C 13.5240000   13.5980000   19.7160000  
O 14.4530000   13.1780000   19.0600000  
O 15.1050000   19.7330000   23.3150000  
O 12.5550000   19.2620000   24.1530000  
H 11.5990000   14.7120000   21.3610000  
H 11.7690000   13.3080000   20.2750000  
H 15.4360000   15.7190000   19.9740000  
H 15.8660000   19.8060000   22.6970000  
H 13.3340000   19.6900000   24.5410000  
C 16.4590000   17.9340000   21.4570000  
C 16.8090000   18.8930000   20.5300000  
C 18.0600000   18.9560000   20.0110000  
C 19.1130000   18.0490000   20.3660000  
C 18.7330000   17.0760000   21.3530000  
C 17.4350000   17.0380000   21.9000000  
C 15.9790000   19.7780000   19.7400000  
C 16.8350000   20.3240000   18.8010000  
N 18.1240000   19.8020000   18.9470000  
O 15.2280000   21.7040000   17.6430000  
C 16.4820000   21.2880000   17.7210000  
O 17.3250000   21.5620000   16.8400000  
O 19.6210000   16.0950000   21.7720000  
O 17.1650000   16.1280000   22.9190000  
H 14.8410000   19.9700000   19.7330000  
H 14.7090000   21.2250000   18.2940000  
H 19.0060000   19.9130000   18.3450000  
H 20.5440000   16.4990000   21.6560000  
H 17.9090000   15.5210000   23.1230000  
C 20.4980000   18.1510000   19.8950000  
C 21.3770000   19.1280000   20.4140000  
C 22.7070000   19.1410000   20.1470000  
C 23.2500000   18.3350000   19.2020000  
C 22.4930000   17.3720000   18.5800000  
C 21.1140000   17.2370000   18.9680000  
C 21.1760000   20.1610000   21.3940000  
C 22.4330000   20.6560000   21.7310000  
N 23.4350000   20.0840000   20.8910000  
O 21.6520000   21.9820000   23.5480000  
C 22.7370000   21.7120000   22.7630000  
O 23.8630000   22.1310000   22.9630000  
O 23.0860000   16.5180000   17.7190000  
O 20.3560000   16.3480000   18.2260000  
H 20.2290000   20.4300000   21.8770000  
H 20.9390000   21.2970000   23.4020000  
H 24.4530000   20.2810000   20.9260000  
H 22.4600000   16.3110000   17.0470000  
H 19.6290000   16.1100000   18.7720000  
H 24.2810000   18.4310000   18.9860000  
