76
100 
C 19.6600000   14.1210000   26.9250000  
C 18.7340000   13.2480000   27.7410000  
C 17.3870000   13.1200000   27.2990000  
C 16.8790000   13.8350000   26.2400000  
C 17.6580000   14.9090000   25.6310000  
C 18.9920000   15.0390000   26.0100000  
C 16.3730000   12.3230000   27.8870000  
C 15.3160000   12.5530000   27.0500000  
N 15.6170000   13.4930000   26.0900000  
O 13.7850000   11.3160000   28.3950000  
C 13.9750000   11.9230000   27.1970000  
O 13.0550000   11.9760000   26.3460000  
O 19.6890000   16.0800000   25.5970000  
O 20.8980000   14.1530000   27.1040000  
H 19.1690000   12.5280000   28.3940000  
H 16.4350000   11.6490000   28.7980000  
H 14.6150000   11.5790000   28.7940000  
H 19.0340000   16.8040000   25.3480000  
C 17.0570000   15.6490000   24.5020000  
C 16.8360000   17.0060000   24.6030000  
C 16.1930000   17.6740000   23.6410000  
C 15.9520000   17.1390000   22.3230000  
C 16.4150000   15.7910000   22.1200000  
C 16.8740000   15.0590000   23.2480000  
C 17.0120000   17.9620000   25.6640000  
C 16.4240000   19.1840000   25.2370000  
N 15.9440000   18.9680000   23.9610000  
O 17.1000000   20.5260000   27.0200000  
C 16.4260000   20.5880000   25.8420000  
O 16.0360000   21.6250000   25.3880000  
O 16.4000000   15.3040000   20.7610000  
O 17.4240000   13.8320000   23.0710000  
H 17.4310000   17.6270000   26.6570000  
H 17.3600000   19.5650000   27.0950000  
H 15.7150000   19.7290000   23.3190000  
H 15.9120000   15.8990000   20.1710000  
H 17.5210000   13.7830000   22.1500000  
C 15.3090000   17.9910000   21.2510000  
C 15.8340000   19.2820000   20.8170000  
C 15.2120000   19.9560000   19.8130000  
C 14.2290000   19.3700000   18.9600000  
C 13.7570000   18.0850000   19.3710000  
C 14.2900000   17.4670000   20.4940000  
C 16.9400000   20.1320000   21.2240000  
C 16.8880000   21.2960000   20.4550000  
N 15.8330000   21.1500000   19.4980000  
O 18.7180000   22.2460000   21.5430000  
C 17.7900000   22.4560000   20.5540000  
O 17.7630000   23.4730000   19.8210000  
O 12.7370000   17.4110000   18.7250000  
O 13.7460000   16.2060000   20.8760000  
H 17.6360000   19.8930000   22.0420000  
H 18.3180000   21.5410000   22.1360000  
H 15.5800000   21.8840000   18.8170000  
H 12.4450000   18.0710000   18.0730000  
H 12.9610000   16.0390000   20.3740000  
C 13.7770000   20.0550000   17.7340000  
C 14.2570000   19.6500000   16.4480000  
C 13.9370000   20.2260000   15.3100000  
C 13.0830000   21.3420000   15.3470000  
C 12.7370000   21.9110000   16.5680000  
C 13.1010000   21.3100000   17.7550000  
C 15.0810000   18.4790000   16.0980000  
C 15.0860000   18.3550000   14.7340000  
N 14.4190000   19.5010000   14.2500000  
O 16.6340000   16.4260000   14.4590000  
C 15.8470000   17.4190000   13.8800000  
O 15.7900000   17.5300000   12.6760000  
O 11.9860000   23.0660000   16.5840000  
O 12.6730000   21.8650000   18.9330000  
H 15.5200000   17.6660000   16.6920000  
H 16.5330000   16.6500000   15.4180000  
H 14.2970000   19.7150000   13.3200000  
H 11.6470000   23.1310000   17.4520000  
H 12.7280000   21.1820000   19.6170000  
H 12.8730000   21.8140000   14.3920000  
