76
100 
C 16.6690000   10.6310000   24.4800000  
C 16.6020000    9.8690000   23.2660000  
C 16.3100000   10.4670000   22.0750000  
C 16.0110000   11.7890000   21.9300000  
C 15.8630000   12.6260000   23.0860000  
C 16.3210000   12.0890000   24.2670000  
C 16.2740000    9.9570000   20.6930000  
C 15.9410000   11.0700000   19.9210000  
N 15.6640000   12.1880000   20.6920000  
O 16.1100000   10.0040000   17.6370000  
C 15.9300000   11.1810000   18.3730000  
O 15.9260000   12.2610000   17.7850000  
O 16.3880000   12.8430000   25.4170000  
O 16.9170000   10.0420000   25.5300000  
H 16.8200000    8.8160000   23.2840000  
H 16.5710000    8.9830000   20.3990000  
H 16.2100000    9.2930000   18.3050000  
H 15.8700000   13.6280000   25.2850000  
C 15.7130000   14.0870000   22.8700000  
C 14.5180000   14.7740000   23.0830000  
C 14.3570000   16.0630000   22.7070000  
C 15.4280000   16.8900000   22.1290000  
C 16.6740000   16.1660000   21.9820000  
C 16.7960000   14.8480000   22.3820000  
C 13.2010000   14.3350000   23.5730000  
C 12.3540000   15.4070000   23.3530000  
N 13.0310000   16.4370000   22.7230000  
O 10.6590000   14.2400000   24.4110000  
C 10.9170000   15.3980000   23.7480000  
O 10.0720000   16.2130000   23.5830000  
O 17.7140000   16.8620000   21.4670000  
O 18.0260000   14.2670000   22.3660000  
H 12.9390000   13.3440000   24.0140000  
H 11.5670000   13.8270000   24.5150000  
H 12.7090000   17.3630000   22.5670000  
H 17.5430000   17.8090000   21.4830000  
H 18.7410000   14.8180000   22.0950000  
C 15.2340000   18.3880000   21.8140000  
C 16.0900000   19.3890000   22.3740000  
C 15.9960000   20.6410000   21.9930000  
C 15.0890000   21.2080000   21.0680000  
C 14.1780000   20.2460000   20.5320000  
C 14.2770000   18.8680000   20.8870000  
C 17.1560000   19.2470000   23.3260000  
C 17.6890000   20.5410000   23.4010000  
N 16.9600000   21.4330000   22.6380000  
O 19.4080000   19.8730000   24.9150000  
C 18.7990000   20.8410000   24.2680000  
O 19.3190000   21.9380000   24.4260000  
O 13.3070000   20.6160000   19.5100000  
O 13.4960000   17.9580000   20.2660000  
H 17.4110000   18.4550000   24.0250000  
H 19.1360000   19.0380000   24.5940000  
H 17.0410000   22.4280000   22.5650000  
H 13.5550000   21.4980000   19.1630000  
H 12.8650000   18.5910000   19.9150000  
C 15.2320000   22.6340000   20.6360000  
C 16.4190000   23.1640000   20.1170000  
C 16.5640000   24.4890000   19.8700000  
C 15.4440000   25.3740000   19.8580000  
C 14.2280000   24.8800000   20.2440000  
C 14.1010000   23.5070000   20.6450000  
C 17.7040000   22.5910000   20.0750000  
C 18.6250000   23.5830000   19.6100000  
N 17.8370000   24.7260000   19.4390000  
O 20.4770000   22.1630000   19.6600000  
C 20.0750000   23.4050000   19.3000000  
O 20.8870000   24.2120000   18.9160000  
O 13.1920000   25.6710000   20.0850000  
O 12.8570000   23.1200000   21.1450000  
H 17.8840000   21.5750000   20.2430000  
H 19.6730000   21.6540000   19.8570000  
H 18.1280000   25.4740000   18.9140000  
H 12.4270000   25.1280000   20.3630000  
H 12.9500000   22.3300000   21.6610000  
H 15.4760000   26.3690000   19.4030000  
