76
100 
C 11.6640000   16.1170000   27.3220000  
C 10.2310000   16.1630000   26.9570000  
C  9.7900000   16.4740000   25.6960000  
C 10.6810000   16.7620000   24.6520000  
C 12.0970000   16.6750000   24.8790000  
C 12.5720000   16.3030000   26.1620000  
C  8.4530000   16.6120000   25.1320000  
C  8.6390000   17.0550000   23.7960000  
N 10.0010000   17.1580000   23.5440000  
O  6.3710000   17.4780000   23.1160000  
C  7.6510000   17.4290000   22.7540000  
O  7.9600000   17.7170000   21.5770000  
O 13.8770000   16.1520000   26.4420000  
O 12.0380000   16.0040000   28.4300000  
H  9.5400000   16.1040000   27.7870000  
H  7.4860000   16.4420000   25.7370000  
H  6.2040000   17.3670000   24.0860000  
H 14.3380000   16.3630000   25.6500000  
C 13.0700000   17.0920000   23.8690000  
C 13.5690000   18.4170000   23.7250000  
C 14.6030000   18.7190000   22.8930000  
C 15.1470000   17.8100000   22.0050000  
C 14.5650000   16.5010000   21.9420000  
C 13.5920000   16.1710000   22.9140000  
C 13.2160000   19.6430000   24.3650000  
C 14.1000000   20.6050000   23.9930000  
N 15.0070000   19.9930000   23.0920000  
O 13.4020000   22.3340000   25.3190000  
C 14.2020000   22.0120000   24.3370000  
O 14.9320000   22.8250000   23.8250000  
O 15.0900000   15.5270000   21.1080000  
O 13.2300000   14.8420000   22.9740000  
H 12.4840000   19.7690000   25.1920000  
H 12.9430000   21.4640000   25.6090000  
H 15.7290000   20.4560000   22.6100000  
H 15.9030000   15.8250000   20.6490000  
H 13.8770000   14.3690000   22.3650000  
C 16.2600000   18.2890000   21.1120000  
C 17.6190000   18.0950000   21.4690000  
C 18.6130000   18.2440000   20.5460000  
C 18.4420000   18.7370000   19.2400000  
C 17.0630000   18.9970000   18.8520000  
C 16.0210000   18.7670000   19.7930000  
C 18.1860000   17.5010000   22.6340000  
C 19.5010000   17.1990000   22.3750000  
N 19.8140000   17.7270000   21.0810000  
O 19.8610000   15.9340000   24.3570000  
C 20.4050000   16.3550000   23.1860000  
O 21.5900000   16.0380000   22.9340000  
O 16.7510000   19.3900000   17.5890000  
O 14.7710000   19.2290000   19.4580000  
H 17.6730000   17.1590000   23.5040000  
H 18.9060000   16.1390000   24.2440000  
H 20.7020000   17.6290000   20.5740000  
H 17.6620000   19.5600000   17.1730000  
H 14.9450000   19.9470000   18.8310000  
C 19.5150000   18.6580000   18.2160000  
C 20.1910000   17.4550000   17.8940000  
C 21.1090000   17.3730000   16.9770000  
C 21.5260000   18.5540000   16.2400000  
C 20.8920000   19.8200000   16.4620000  
C 19.8430000   19.8460000   17.4550000  
C 20.0910000   16.1110000   18.4600000  
C 21.1460000   15.3060000   17.9440000  
N 21.7870000   16.1530000   17.0520000  
O 20.7600000   13.3590000   19.2050000  
C 21.5360000   13.8920000   18.2420000  
O 22.4290000   13.2490000   17.6690000  
O 21.4130000   20.9320000   15.8570000  
O 19.1960000   21.0530000   17.7440000  
H 19.2240000   15.7600000   19.1940000  
H 20.2740000   14.0840000   19.7100000  
H 22.6280000   15.9640000   16.5500000  
H 22.2740000   20.6160000   15.5920000  
H 19.8530000   21.7610000   17.7920000  
H 22.3180000   18.4270000   15.5180000  
