76
100 
C 10.9450000   17.4700000   27.3460000  
C 11.5370000   18.3050000   28.4620000  
C 12.6740000   19.0230000   28.3930000  
C 13.4070000   19.0650000   27.2150000  
C 12.8740000   18.2790000   26.0670000  
C 11.7820000   17.4890000   26.1000000  
C 13.3250000   19.8340000   29.2270000  
C 14.5620000   20.1150000   28.6770000  
N 14.5830000   19.6290000   27.3540000  
O 15.5500000   20.8970000   30.7260000  
C 15.7350000   20.6610000   29.3900000  
O 16.8690000   20.8030000   29.0110000  
O 11.2870000   16.7850000   25.0470000  
O  9.8750000   16.8490000   27.4630000  
H 10.9200000   18.3230000   29.3840000  
H 13.1080000   20.0050000   30.2340000  
H 14.6230000   20.7370000   30.9660000  
H 11.9840000   16.9230000   24.3270000  
C 13.7060000   18.2640000   24.8800000  
C 14.2690000   17.0450000   24.4040000  
C 14.9660000   17.0500000   23.2590000  
C 15.2640000   18.2140000   22.4460000  
C 14.7380000   19.4560000   22.9210000  
C 13.9340000   19.4630000   24.1420000  
C 14.3200000   15.6790000   24.8860000  
C 14.8460000   14.9100000   23.8210000  
N 15.2930000   15.7840000   22.8540000  
O 14.6670000   12.7150000   24.7060000  
C 14.9490000   13.4470000   23.6210000  
O 15.2530000   12.9860000   22.5180000  
O 14.7020000   20.5460000   22.0440000  
O 13.2620000   20.5810000   24.4320000  
H 14.0060000   15.3030000   25.8650000  
H 14.3360000   13.4110000   25.3290000  
H 15.7790000   15.4600000   21.9790000  
H 15.4080000   20.3970000   21.4260000  
H 13.4920000   21.4070000   23.9250000  
C 16.1840000   18.1200000   21.2640000  
C 15.9170000   17.2310000   20.1450000  
C 16.8620000   17.1430000   19.2150000  
C 18.0320000   17.8640000   19.0570000  
C 18.3360000   18.7460000   20.1490000  
C 17.3500000   18.9180000   21.1820000  
C 14.7680000   16.4200000   19.7650000  
C 15.1740000   15.7540000   18.6070000  
N 16.4280000   16.2270000   18.2820000  
O 13.1200000   14.5110000   18.2080000  
C 14.3620000   14.7690000   17.7400000  
O 14.7990000   14.2670000   16.7450000  
O 19.4500000   19.5020000   20.1270000  
O 17.6160000   19.8250000   22.0880000  
H 13.7820000   16.5300000   20.2500000  
H 13.1710000   15.0170000   19.0280000  
H 16.9680000   15.8670000   17.4420000  
H 19.9850000   19.0410000   19.4410000  
H 18.5200000   20.1760000   22.0350000  
C 18.9390000   17.4830000   17.9700000  
C 18.7490000   17.8110000   16.6390000  
C 19.6960000   17.4790000   15.6730000  
C 20.8350000   16.6690000   15.9200000  
C 21.0330000   16.3220000   17.2800000  
C 20.1500000   16.6860000   18.2960000  
C 17.7020000   18.5300000   15.9800000  
C 18.1050000   18.7090000   14.6620000  
N 19.3700000   18.0690000   14.4570000  
O 16.2280000   19.9110000   13.7570000  
C 17.4640000   19.5570000   13.5470000  
O 17.9970000   19.7310000   12.4470000  
O 22.1730000   15.5480000   17.4720000  
O 20.4240000   16.2510000   19.5510000  
H 16.8900000   19.0150000   16.4820000  
H 16.0720000   19.8600000   14.6980000  
H 19.9260000   18.1220000   13.6420000  
H 22.5900000   15.2290000   16.6030000  
H 21.0000000   15.4930000   19.5740000  
H 21.5660000   16.4470000   15.1250000  
