76
100 
C  9.4210000   16.3860000   25.8750000  
C  9.6020000   17.3680000   27.0210000  
C 10.5970000   18.3230000   26.8850000  
C 11.5330000   18.3500000   25.8470000  
C 11.5510000   17.3230000   24.8540000  
C 10.5440000   16.3470000   24.8620000  
C 10.9490000   19.3610000   27.7160000  
C 12.0710000   19.9610000   27.1900000  
N 12.3790000   19.3680000   25.9770000  
O 12.4000000   21.0700000   29.1990000  
C 12.9330000   20.8760000   27.9570000  
O 13.9170000   21.3980000   27.5410000  
O 10.4230000   15.4340000   23.8600000  
O  8.4320000   15.6810000   25.9030000  
H  8.8900000   17.3100000   27.8460000  
H 10.5330000   19.6580000   28.6530000  
H 11.7640000   20.3390000   29.3580000  
H 11.0270000   15.5970000   23.1410000  
C 12.6030000   17.3770000   23.8150000  
C 13.9780000   17.2720000   24.0880000  
C 14.8900000   17.4870000   23.1370000  
C 14.6540000   17.9660000   21.8480000  
C 13.2590000   18.0110000   21.5910000  
C 12.2760000   17.7180000   22.5120000  
C 14.6640000   17.0970000   25.2940000  
C 16.0630000   17.2070000   25.0140000  
N 16.1730000   17.3210000   23.6230000  
O 16.9720000   17.2760000   27.2310000  
C 17.2570000   17.1470000   25.9390000  
O 18.4240000   17.2200000   25.6150000  
O 12.8560000   18.4400000   20.3330000  
O 10.9660000   17.8360000   22.1200000  
H 14.2160000   16.9680000   26.3520000  
H 15.9630000   17.3670000   27.2220000  
H 17.0090000   17.4780000   23.1670000  
H 13.7040000   18.5330000   19.7960000  
H 10.9820000   18.1450000   21.1600000  
C 15.7660000   18.2350000   20.8040000  
C 16.8470000   17.3050000   20.6260000  
C 17.8290000   17.5320000   19.7120000  
C 17.9400000   18.6930000   18.9280000  
C 16.8980000   19.6720000   19.0360000  
C 15.8280000   19.4520000   19.9640000  
C 17.1030000   15.9890000   21.1970000  
C 18.3050000   15.5580000   20.6420000  
N 18.7980000   16.5950000   19.8890000  
O 18.1710000   13.3480000   21.6420000  
C 18.8720000   14.2090000   20.8020000  
O 19.9720000   13.9040000   20.3060000  
O 16.8920000   20.8210000   18.3060000  
O 14.9130000   20.4210000   20.0460000  
H 16.4710000   15.4550000   21.8690000  
H 17.3400000   13.8760000   21.6950000  
H 19.6370000   16.5020000   19.3700000  
H 17.6680000   20.8220000   17.6750000  
H 15.0840000   21.1830000   19.4480000  
C 19.0540000   18.7720000   17.8700000  
C 19.4010000   17.6680000   17.0250000  
C 20.4710000   17.6680000   16.1360000  
C 21.2600000   18.8320000   15.9900000  
C 21.0220000   19.9150000   16.8400000  
C 19.9460000   19.9080000   17.7090000  
C 18.7700000   16.3600000   16.8580000  
C 19.6030000   15.6240000   16.0050000  
N 20.6480000   16.4580000   15.5370000  
O 18.4810000   13.4560000   16.1280000  
C 19.5570000   14.1540000   15.7040000  
O 20.4260000   13.6170000   15.0500000  
O 21.6960000   21.0660000   16.7510000  
O 19.5740000   21.0610000   18.4240000  
H 17.9030000   16.0360000   17.2570000  
H 18.0320000   14.0110000   16.7430000  
H 21.5060000   16.1320000   15.0530000  
H 21.6410000   21.3860000   15.8000000  
H 20.3920000   21.4380000   18.6450000  
H 22.0640000   18.8270000   15.3050000  
