76
100 
C  8.6830000   15.4220000   20.9790000  
C  8.4690000   14.6960000   22.2140000  
C  9.3330000   14.6960000   23.2430000  
C 10.4950000   15.4830000   23.1870000  
C 10.8180000   16.2530000   21.9850000  
C  9.9640000   16.1890000   20.8870000  
C  9.3540000   13.9940000   24.4700000  
C 10.5110000   14.3890000   25.0580000  
N 11.2280000   15.3620000   24.2970000  
O 10.2470000   12.8750000   26.9030000  
C 11.0430000   13.8580000   26.3300000  
O 12.1120000   14.1970000   26.8800000  
O 10.3690000   16.7390000   19.7010000  
O  7.8490000   15.3390000   20.1150000  
H  7.5500000   14.0850000   22.2460000  
H  8.7160000   13.2660000   24.8280000  
H  9.3410000   12.9890000   26.5120000  
H 11.0870000   17.3610000   19.9180000  
C 12.1670000   16.8140000   21.8890000  
C 13.2370000   15.9400000   21.9700000  
C 14.4480000   16.4270000   21.8320000  
C 14.8280000   17.7840000   21.7480000  
C 13.7370000   18.6960000   21.6440000  
C 12.3350000   18.2400000   21.7690000  
C 13.2610000   14.5230000   22.0760000  
C 14.5980000   14.1500000   22.2020000  
N 15.3650000   15.3410000   21.9610000  
O 14.1420000   11.8860000   22.7940000  
C 15.1050000   12.7900000   22.5150000  
O 16.2910000   12.4150000   22.4590000  
O 14.0980000   20.0120000   21.5010000  
O 11.2930000   19.1560000   21.6140000  
H 12.4260000   13.8830000   22.3140000  
H 13.4090000   12.4850000   22.8750000  
H 16.3530000   15.4050000   21.9090000  
H 15.0800000   20.0240000   21.2760000  
H 11.7030000   20.0030000   21.6460000  
C 16.2780000   18.2400000   21.7150000  
C 17.1060000   18.1420000   20.5610000  
C 18.3630000   18.6300000   20.5580000  
C 19.0210000   19.1870000   21.6780000  
C 18.1460000   19.4520000   22.7570000  
C 16.7870000   18.9980000   22.8340000  
C 16.9260000   17.5360000   19.2700000  
C 18.1220000   17.6870000   18.5600000  
N 18.9420000   18.4380000   19.3550000  
O 17.4200000   16.5200000   16.6420000  
C 18.4450000   17.1200000   17.2610000  
O 19.5430000   17.3090000   16.6950000  
O 18.6130000   20.1660000   23.8310000  
O 16.1670000   19.0750000   24.0550000  
H 16.0370000   17.0440000   18.9490000  
H 16.6290000   16.9310000   17.0980000  
H 19.9130000   18.6510000   19.2400000  
H 19.4790000   20.5150000   23.5510000  
H 16.5580000   19.8490000   24.5560000  
C 20.4600000   19.6060000   21.7540000  
C 20.7910000   20.9070000   21.2750000  
C 22.0960000   21.3910000   21.2790000  
C 23.1350000   20.6420000   21.8880000  
C 22.8100000   19.4890000   22.6250000  
C 21.4660000   18.9500000   22.5130000  
C 19.9820000   21.9110000   20.5380000  
C 20.8840000   22.9420000   20.0900000  
N 22.1580000   22.6660000   20.5970000  
O 19.3870000   24.3690000   18.9110000  
C 20.6930000   24.1340000   19.2720000  
O 21.5830000   24.8530000   18.9730000  
O 23.8930000   18.8620000   23.2830000  
O 21.2450000   17.7790000   23.1030000  
H 18.8920000   21.9720000   20.3840000  
H 18.9900000   23.5970000   19.2520000  
H 22.9740000   23.2380000   20.4100000  
H 23.5870000   17.9680000   23.5510000  
H 20.3840000   17.5040000   22.8580000  
H 24.1760000   21.0740000   21.9050000  
