76
100 
C  8.9120000   18.2880000   24.8590000  
C  9.1140000   17.3470000   26.0030000  
C 10.3030000   16.5960000   26.0830000  
C 11.3480000   16.6540000   25.1710000  
C 11.2100000   17.5370000   24.0910000  
C 10.0760000   18.3000000   23.9060000  
C 10.6620000   15.5850000   26.9400000  
C 11.8920000   15.0530000   26.5310000  
N 12.3570000   15.8400000   25.4900000  
O 12.1220000   13.3010000   28.1550000  
C 12.7090000   14.0230000   27.1820000  
O 13.7620000   13.6670000   26.7210000  
O 10.0360000   19.2740000   22.9420000  
O  8.1030000   19.2220000   24.7700000  
H  8.2520000   17.0800000   26.6220000  
H 10.0670000   15.2220000   27.7600000  
H 11.2810000   13.7910000   28.1570000  
H 10.9170000   19.4210000   22.5540000  
C 12.4650000   17.6450000   23.3730000  
C 12.5910000   17.0420000   22.1240000  
C 13.7040000   17.1400000   21.3560000  
C 14.8580000   17.8400000   21.8410000  
C 14.7100000   18.5110000   23.0960000  
C 13.5390000   18.4270000   23.9140000  
C 11.7000000   16.1380000   21.3770000  
C 12.3210000   15.8380000   20.2010000  
N 13.6140000   16.3940000   20.1910000  
O 10.4650000   14.7130000   19.2410000  
C 11.6730000   15.1560000   19.0590000  
O 12.2580000   14.9230000   18.0000000  
O 15.8270000   19.1640000   23.6270000  
O 13.4040000   18.9250000   25.1870000  
H 10.7410000   15.8990000   21.6620000  
H 10.3470000   15.0560000   20.1470000  
H 14.2480000   16.3650000   19.4650000  
H 16.5690000   19.1620000   22.9750000  
H 14.2790000   19.1790000   25.5890000  
C 16.1400000   17.9090000   21.0980000  
C 16.7300000   19.1770000   20.6790000  
C 17.9730000   19.2000000   20.0520000  
C 18.6920000   18.0670000   19.6110000  
C 18.1090000   16.8160000   20.0400000  
C 16.9200000   16.7290000   20.8370000  
C 16.2320000   20.5700000   20.7150000  
C 17.2650000   21.3460000   20.1610000  
N 18.3380000   20.4920000   19.8040000  
O 16.3930000   23.5180000   20.7340000  
C 17.3940000   22.8040000   20.1420000  
O 18.3510000   23.3630000   19.6650000  
O 18.7620000   15.6190000   19.6650000  
O 16.4810000   15.4920000   21.1590000  
H 15.3020000   20.9210000   21.2480000  
H 15.6740000   22.9250000   20.9160000  
H 19.2260000   20.8000000   19.4960000  
H 19.5240000   15.7720000   19.0620000  
H 17.2450000   14.9010000   20.9310000  
C 19.9590000   18.1640000   18.8580000  
C 21.1920000   17.7940000   19.4790000  
C 22.4020000   17.9280000   18.8990000  
C 22.4080000   18.4440000   17.6290000  
C 21.3160000   18.8810000   16.9240000  
C 20.0810000   18.7990000   17.5930000  
C 21.5070000   17.2630000   20.7940000  
C 22.8750000   17.0640000   20.9220000  
N 23.4280000   17.4760000   19.7240000  
O 22.7750000   16.1620000   23.1780000  
C 23.5420000   16.5380000   22.0910000  
O 24.7210000   16.3320000   22.1100000  
O 21.3910000   19.3680000   15.6400000  
O 18.9210000   19.1580000   16.9270000  
H 20.7590000   16.9250000   21.4990000  
H 21.8550000   16.1040000   22.8650000  
H 24.3540000   17.3540000   19.4330000  
H 20.5780000   19.9640000   15.4290000  
H 18.2400000   19.0940000   17.7000000  
H 23.3740000   18.3990000   17.1440000  
