76
100 
C 16.0610000   10.2580000   23.2920000  
C 15.1900000    9.7570000   22.1920000  
C 14.6820000   10.6490000   21.2330000  
C 14.8120000   12.0280000   21.3130000  
C 15.5390000   12.5540000   22.3940000  
C 16.1510000   11.7610000   23.3610000  
C 14.0370000   10.3450000   20.0260000  
C 13.9590000   11.5890000   19.4540000  
N 14.4110000   12.6630000   20.2340000  
O 12.7270000   10.7550000   17.5480000  
C 13.4550000   11.7630000   18.0440000  
O 13.6560000   12.7480000   17.3920000  
O 16.9130000   12.2790000   24.3590000  
O 16.6320000    9.4660000   24.0670000  
H 15.1110000    8.6570000   22.2810000  
H 13.7870000    9.3490000   19.5990000  
H 12.4780000   10.2390000   18.2990000  
H 17.0080000   13.2070000   24.1250000  
C 15.6760000   14.0060000   22.3310000  
C 14.6780000   14.7970000   22.8210000  
C 14.8170000   16.1580000   22.8740000  
C 15.9220000   16.8710000   22.3140000  
C 16.9740000   16.0640000   21.7650000  
C 16.8390000   14.6610000   21.7730000  
C 13.4270000   14.4470000   23.4870000  
C 12.8700000   15.6190000   23.7850000  
N 13.7530000   16.7030000   23.5240000  
O 10.7680000   14.7620000   24.2930000  
C 11.4620000   15.8740000   24.2000000  
O 11.0520000   16.9960000   24.4790000  
O 18.0900000   16.7010000   21.1890000  
O 17.6930000   13.8430000   21.1020000  
H 12.9830000   13.4300000   23.6150000  
H 11.2760000   13.9350000   24.0910000  
H 13.5940000   17.7110000   23.7170000  
H 17.9610000   17.6170000   21.5210000  
H 18.1350000   14.3270000   20.3880000  
C 15.8870000   18.3650000   22.3470000  
C 16.9800000   19.1350000   22.7300000  
C 16.9990000   20.4960000   22.5420000  
C 15.8840000   21.2640000   22.0860000  
C 14.7340000   20.4390000   21.8120000  
C 14.7620000   19.0610000   21.8090000  
C 18.2290000   18.8390000   23.2350000  
C 18.9460000   20.0090000   23.4250000  
N 18.2260000   21.0610000   22.8300000  
O 20.9490000   19.0080000   24.3870000  
C 20.2530000   20.1300000   24.0430000  
O 20.7300000   21.2400000   24.2280000  
O 13.6760000   21.0890000   21.2280000  
O 13.7370000   18.4130000   21.2470000  
H 18.5850000   17.8960000   23.5990000  
H 20.3030000   18.2610000   24.5120000  
H 18.7000000   21.9140000   22.5980000  
H 14.1280000   21.9240000   21.0550000  
H 12.9920000   19.0540000   21.0730000  
C 16.0000000   22.7590000   21.7320000  
C 16.6520000   23.1830000   20.5990000  
C 16.8080000   24.4960000   20.3120000  
C 16.2020000   25.4850000   21.0310000  
C 15.4650000   25.1160000   22.1960000  
C 15.4160000   23.7770000   22.6040000  
C 17.2560000   22.4680000   19.5550000  
C 17.7230000   23.3400000   18.6130000  
N 17.5050000   24.6490000   19.0700000  
O 18.7020000   21.6130000   17.2130000  
C 18.5160000   22.9670000   17.4350000  
O 18.9780000   23.7150000   16.6020000  
O 14.8600000   26.1060000   23.0320000  
O 14.8340000   23.3980000   23.8440000  
H 17.3000000   21.4130000   19.4710000  
H 18.1100000   21.0540000   17.8100000  
H 17.8440000   25.4910000   18.6210000  
H 14.4530000   25.7180000   23.8400000  
H 15.1620000   22.4570000   23.9540000  
H 16.3500000   26.5260000   20.7310000  
