76
100 
C  8.3670000   17.7850000   23.1580000  
C  8.0100000   16.4190000   23.6400000  
C  9.0230000   15.4620000   23.7880000  
C 10.3750000   15.6300000   23.4070000  
C 10.7260000   16.8590000   22.7980000  
C  9.8190000   17.9380000   22.8280000  
C  8.9520000   14.1760000   24.3500000  
C 10.1870000   13.6110000   24.1040000  
N 11.1190000   14.6000000   23.6870000  
O  9.8370000   11.6960000   25.2480000  
C 10.7090000   12.3210000   24.5230000  
O 11.7990000   11.8940000   24.2660000  
O 10.1510000   19.1780000   22.4650000  
O  7.5100000   18.7180000   23.0190000  
H  6.9660000   16.2030000   23.8810000  
H  8.1030000   13.7110000   24.7670000  
H  9.0860000   12.2460000   25.1270000  
H 11.1340000   19.1270000   22.4080000  
C 12.1400000   17.1500000   22.4960000  
C 12.5320000   17.2700000   21.1770000  
C 13.8060000   17.5250000   20.8770000  
C 14.8780000   17.6950000   21.8070000  
C 14.4560000   17.6340000   23.1550000  
C 13.1030000   17.4340000   23.4880000  
C 11.7790000   17.2600000   19.9680000  
C 12.6440000   17.5070000   18.9520000  
N 13.9590000   17.5950000   19.5230000  
O 11.2390000   17.1400000   17.0920000  
C 12.4870000   17.4910000   17.5120000  
O 13.3690000   17.6920000   16.7230000  
O 15.4260000   17.9220000   24.0580000  
O 12.8480000   17.3190000   24.8630000  
H 10.7470000   16.9970000   19.7530000  
H 10.6990000   17.0840000   17.9380000  
H 14.8540000   17.7670000   19.1030000  
H 16.2280000   17.5460000   23.6700000  
H 13.6400000   17.0440000   25.3580000  
C 16.3280000   17.6750000   21.3900000  
C 17.1160000   18.7940000   21.6110000  
C 18.4540000   18.8100000   21.2720000  
C 19.2080000   17.8350000   20.6170000  
C 18.3610000   16.7020000   20.3340000  
C 17.0010000   16.6700000   20.6190000  
C 16.8270000   20.0610000   22.2000000  
C 18.0330000   20.7710000   22.2240000  
N 18.9750000   20.0060000   21.5630000  
O 17.2180000   22.6850000   23.3670000  
C 18.3000000   22.1040000   22.7880000  
O 19.3850000   22.6130000   22.9200000  
O 19.0220000   15.6290000   19.7520000  
O 16.2720000   15.5480000   20.4040000  
H 15.8750000   20.4570000   22.5830000  
H 16.4240000   22.2380000   23.0930000  
H 19.9760000   20.2790000   21.3310000  
H 20.0100000   15.7490000   19.7000000  
H 16.7800000   14.9250000   19.8260000  
C 20.6610000   17.9480000   20.1060000  
C 21.7380000   18.3640000   20.9340000  
C 23.0280000   18.5720000   20.5350000  
C 23.4250000   18.5720000   19.1900000  
C 22.3720000   18.1090000   18.3200000  
C 21.0530000   17.8740000   18.7620000  
C 21.7100000   18.6670000   22.3080000  
C 22.9680000   19.2400000   22.6610000  
N 23.8340000   19.0730000   21.5540000  
O 22.4810000   19.7380000   24.9960000  
C 23.3450000   19.8590000   23.9590000  
O 24.4100000   20.4520000   24.1190000  
O 22.7150000   17.6760000   17.0360000  
O 20.1820000   17.5690000   17.7620000  
H 20.8070000   18.4390000   22.8930000  
H 21.7730000   19.1750000   24.6660000  
H 24.8050000   19.4350000   21.6140000  
H 23.6670000   17.9460000   16.9320000  
H 20.5220000   17.5730000   16.8420000  
H 24.4270000   18.9310000   18.8500000  
