76
100 
C 19.4840000   12.9490000   26.2430000  
C 18.3740000   12.2650000   26.9630000  
C 17.0800000   12.6340000   26.6730000  
C 16.6840000   13.6090000   25.7620000  
C 17.7470000   14.2730000   25.1080000  
C 19.1360000   14.0240000   25.2900000  
C 15.8660000   12.0330000   27.0550000  
C 14.8520000   12.7380000   26.4500000  
N 15.3620000   13.6450000   25.5710000  
O 13.1290000   11.3150000   27.3250000  
C 13.4060000   12.3810000   26.5610000  
O 12.5110000   12.9180000   25.8950000  
O 20.2150000   14.5760000   24.5530000  
O 20.6220000   12.6610000   26.5110000  
H 18.5200000   11.3370000   27.5020000  
H 15.8870000   11.1640000   27.7410000  
H 14.0500000   11.1850000   27.7400000  
H 19.9150000   15.3100000   23.9810000  
C 17.4550000   15.3290000   24.1720000  
C 17.4220000   16.6630000   24.6000000  
C 17.1590000   17.6800000   23.7320000  
C 16.7620000   17.5160000   22.3690000  
C 16.7820000   16.1890000   21.8800000  
C 17.1920000   15.1520000   22.7960000  
C 17.5010000   17.2400000   25.8960000  
C 17.3190000   18.6390000   25.7490000  
N 16.9780000   18.8720000   24.4010000  
O 17.4600000   19.0400000   28.1870000  
C 17.2030000   19.5670000   26.9080000  
O 16.8390000   20.7640000   26.8480000  
O 16.3760000   15.8270000   20.5900000  
O 17.1940000   13.8670000   22.3460000  
H 17.6480000   16.7800000   26.8600000  
H 17.6330000   18.1390000   28.1030000  
H 16.5410000   19.6350000   24.0050000  
H 16.3550000   16.6660000   20.0740000  
H 16.9550000   13.9660000   21.3490000  
C 16.0730000   18.5990000   21.4670000  
C 16.5600000   18.8430000   20.2390000  
C 15.9000000   19.6530000   19.3490000  
C 14.7560000   20.3620000   19.6720000  
C 14.2420000   20.1100000   20.9750000  
C 14.8910000   19.2870000   21.8380000  
C 17.6710000   18.1420000   19.5540000  
C 17.5380000   18.5400000   18.2290000  
N 16.5730000   19.5670000   18.1630000  
O 19.4680000   17.2950000   17.4480000  
C 18.4330000   18.0960000   17.1020000  
O 18.2380000   18.4150000   15.9180000  
O 13.1420000   20.7650000   21.3610000  
O 14.2660000   18.8850000   22.9880000  
H 18.3150000   17.4290000   19.9590000  
H 19.4330000   17.0370000   18.3620000  
H 16.2770000   20.0240000   17.3150000  
H 12.7960000   21.2900000   20.6520000  
H 13.4320000   19.3010000   23.0460000  
C 14.1660000   21.3580000   18.7100000  
C 13.6120000   20.9420000   17.4850000  
C 13.0680000   21.8300000   16.5670000  
C 12.9690000   23.2150000   16.8170000  
C 13.4190000   23.6660000   18.0950000  
C 14.0630000   22.7240000   18.9840000  
C 13.5850000   19.6510000   16.8760000  
C 13.0690000   19.7830000   15.6040000  
N 12.8140000   21.1540000   15.4320000  
O 12.9840000   17.4860000   15.0260000  
C 12.8470000   18.7430000   14.5810000  
O 12.4060000   18.9140000   13.4470000  
O 12.9970000   24.8900000   18.4940000  
O 14.3890000   23.2790000   20.2000000  
H 13.9140000   18.7420000   17.3210000  
H 13.4070000   17.6960000   15.8580000  
H 12.4310000   21.5950000   14.5240000  
H 13.4240000   25.1890000   19.3370000  
H 14.9770000   22.5660000   20.5310000  
H 12.5160000   23.8730000   16.0790000  
