76
100 
C  8.2170000   16.8430000   22.1690000  
C  8.0660000   15.4120000   22.3250000  
C  9.1610000   14.6030000   22.4380000  
C 10.4340000   15.1180000   22.5010000  
C 10.7330000   16.5750000   22.4300000  
C  9.6170000   17.3560000   22.3100000  
C  9.1980000   13.2210000   22.6370000  
C 10.5640000   12.9340000   22.7210000  
N 11.2920000   14.1220000   22.7200000  
O 10.4720000   10.4320000   22.9380000  
C 11.2480000   11.5880000   22.9140000  
O 12.4660000   11.4600000   22.9670000  
O  9.6630000   18.6730000   22.0540000  
O  7.2630000   17.5460000   21.8180000  
H  7.0830000   15.0380000   22.2200000  
H  8.3990000   12.4940000   22.7330000  
H  9.5290000   10.6840000   22.9330000  
H 10.6210000   18.8890000   22.1990000  
C 12.1880000   17.0410000   22.4160000  
C 13.1040000   16.4350000   21.5260000  
C 14.4240000   16.7450000   21.4240000  
C 15.0820000   17.6000000   22.2910000  
C 14.2050000   18.2010000   23.2400000  
C 12.7960000   17.9210000   23.3450000  
C 12.8330000   15.4960000   20.4500000  
C 13.9640000   15.3920000   19.6700000  
N 14.9820000   16.2050000   20.2430000  
O 13.0770000   13.9750000   17.9650000  
C 14.2270000   14.5480000   18.4830000  
O 15.3500000   14.3120000   18.0260000  
O 14.7170000   19.1280000   24.1550000  
O 12.0750000   18.5010000   24.3400000  
H 11.9850000   14.8080000   20.3500000  
H 12.3640000   14.4280000   18.3750000  
H 15.9320000   16.4010000   19.8780000  
H 15.6650000   18.9060000   24.1940000  
H 12.7130000   18.7850000   25.0170000  
C 16.5090000   17.9280000   22.2540000  
C 17.1140000   18.4900000   21.1300000  
C 18.4410000   18.8000000   21.2340000  
C 19.3210000   18.4350000   22.2290000  
C 18.7200000   17.7620000   23.3010000  
C 17.3720000   17.5870000   23.3580000  
C 16.6750000   19.0110000   19.8780000  
C 17.7320000   19.6140000   19.1850000  
N 18.8350000   19.5190000   20.0740000  
O 16.7430000   20.1180000   17.0360000  
C 17.8040000   20.2790000   17.8160000  
O 18.7920000   20.9290000   17.4990000  
O 19.5100000   17.3920000   24.4040000  
O 16.8040000   17.0100000   24.4390000  
H 15.6370000   18.9390000   19.6690000  
H 16.1460000   19.5080000   17.4970000  
H 19.7410000   19.9560000   19.9460000  
H 20.4350000   17.2200000   24.0400000  
H 17.5160000   16.7170000   25.0490000  
C 20.7280000   18.8270000   22.1210000  
C 21.0100000   20.2010000   22.1310000  
C 22.3040000   20.6530000   22.0610000  
C 23.3440000   19.7710000   21.9970000  
C 23.1490000   18.4000000   21.9290000  
C 21.8320000   17.9370000   21.8750000  
C 20.1600000   21.3260000   22.1980000  
C 21.0770000   22.4140000   22.3560000  
N 22.4130000   21.9870000   22.3160000  
O 19.4990000   24.1530000   22.4220000  
C 20.7960000   23.8660000   22.5310000  
O 21.6870000   24.6550000   22.6910000  
O 24.2490000   17.5460000   21.9060000  
O 21.6170000   16.6350000   21.6370000  
H 19.0790000   21.4480000   22.1660000  
H 19.0470000   23.3030000   22.4310000  
H 23.2490000   22.6220000   22.2840000  
H 24.9740000   18.0540000   22.2640000  
H 22.4610000   16.1970000   21.3200000  
H 24.3490000   20.2440000   21.8860000  
