76
100 
C 11.4140000   16.0550000   27.2420000  
C 11.0190000   17.2120000   28.0120000  
C 11.2670000   18.4540000   27.5290000  
C 12.0430000   18.7360000   26.4010000  
C 12.4360000   17.6490000   25.5880000  
C 12.1570000   16.3760000   26.0140000  
C 11.0880000   19.7110000   28.1850000  
C 11.7440000   20.6220000   27.3790000  
N 12.2410000   20.0050000   26.2300000  
O 11.1220000   22.3350000   28.8050000  
C 11.9240000   21.9980000   27.7060000  
O 12.6160000   22.7740000   27.0720000  
O 12.6670000   15.3060000   25.4290000  
O 11.1110000   14.9400000   27.5730000  
H 10.4200000   17.1110000   28.9720000  
H 10.6370000   19.8230000   29.1940000  
H 10.4620000   21.6410000   28.8850000  
H 13.4710000   15.5560000   24.9840000  
C 13.4520000   17.8340000   24.4900000  
C 14.7410000   17.2990000   24.5640000  
C 15.6420000   17.4260000   23.5480000  
C 15.3230000   17.8790000   22.2540000  
C 14.0170000   18.4050000   22.1480000  
C 13.0900000   18.4360000   23.2470000  
C 15.4220000   16.7310000   25.6730000  
C 16.7220000   16.5240000   25.2440000  
N 16.9110000   17.0240000   23.9100000  
O 17.3730000   15.4430000   27.2490000  
C 17.7490000   15.7080000   25.9510000  
O 18.7200000   15.3540000   25.4170000  
O 13.5450000   18.9590000   21.0040000  
O 11.8350000   18.9280000   23.0650000  
H 15.1240000   16.4440000   26.6590000  
H 16.8170000   16.1500000   27.4750000  
H 17.6910000   17.1560000   23.3280000  
H 14.2980000   18.7720000   20.3770000  
H 11.6820000   19.1870000   22.1110000  
C 16.2730000   17.8040000   21.0860000  
C 16.1880000   16.7020000   20.2160000  
C 17.0860000   16.5340000   19.1710000  
C 18.0640000   17.5070000   18.8080000  
C 18.2600000   18.5970000   19.6710000  
C 17.3510000   18.7120000   20.8100000  
C 15.2350000   15.5930000   20.1250000  
C 15.6450000   14.7520000   19.1020000  
N 16.7220000   15.4300000   18.4610000  
O 14.1470000   12.9870000   19.7060000  
C 15.0180000   13.4240000   18.7720000  
O 15.1730000   12.9240000   17.7030000  
O 19.3600000   19.4560000   19.4560000  
O 17.6240000   19.7130000   21.7430000  
H 14.3140000   15.3970000   20.6940000  
H 14.1980000   13.6870000   20.3970000  
H 17.3040000   15.0480000   17.6860000  
H 20.0340000   19.0620000   18.8710000  
H 18.3260000   20.3210000   21.4530000  
C 19.1470000   17.2940000   17.7680000  
C 19.1920000   18.0580000   16.6340000  
C 20.2210000   18.0070000   15.7080000  
C 21.3000000   17.1780000   15.8420000  
C 21.3120000   16.3170000   17.0190000  
C 20.2540000   16.4590000   17.9620000  
C 18.3500000   19.1000000   16.2400000  
C 18.7530000   19.5680000   15.0090000  
N 19.8810000   18.8240000   14.6240000  
O 17.1690000   21.3150000   14.8450000  
C 18.1420000   20.6310000   14.2200000  
O 18.3320000   20.8440000   13.0100000  
O 22.1980000   15.3010000   17.1270000  
O 20.4150000   15.7870000   19.1460000  
H 17.5050000   19.5260000   16.7090000  
H 17.3250000   20.9390000   15.7430000  
H 20.4650000   18.9030000   13.7820000  
H 22.6340000   15.2370000   16.2640000  
H 21.3610000   15.3710000   19.1670000  
H 22.0950000   17.1050000   15.1080000  
