76
011 
C 16.0230000   20.2880000   28.9300000  
C 14.5780000   20.3510000   28.9830000  
C 13.8980000   19.9970000   27.8130000  
C 14.4960000   19.7540000   26.6070000  
C 15.9350000   19.7500000   26.4490000  
C 16.6700000   20.0000000   27.5950000  
C 12.5260000   19.8690000   27.6430000  
C 12.4250000   19.4670000   26.3230000  
N 13.6660000   19.3870000   25.6880000  
O 10.0880000   19.3660000   26.5120000  
C 11.1260000   19.0410000   25.7540000  
O 10.9870000   18.5430000   24.6260000  
O 18.0230000   19.9160000   27.6360000  
O 16.6900000   20.5050000   29.9360000  
H 14.1740000   20.5580000   29.9860000  
H 11.7900000   19.9070000   28.3850000  
H 10.3350000   19.9640000   27.2660000  
H 18.1940000   19.9300000   28.5790000  
C 16.5570000   19.3690000   25.1850000  
C 16.8020000   20.3640000   24.2360000  
C 17.3630000   19.9640000   23.0410000  
C 17.5460000   18.6660000   22.6240000  
C 17.2670000   17.7130000   23.6110000  
C 16.7770000   18.0620000   24.8560000  
C 16.8640000   21.8090000   24.2840000  
C 17.3740000   22.2300000   23.0510000  
N 17.6120000   21.1080000   22.2740000  
O 17.3760000   24.5690000   23.5560000  
C 17.6970000   23.6050000   22.6520000  
O 18.0080000   23.8990000   21.4810000  
O 17.2460000   16.3870000   23.3250000  
O 16.3630000   17.1430000   25.7290000  
H 16.5160000   22.4910000   25.0830000  
H 16.9580000   24.0640000   24.3120000  
H 18.0020000   21.0640000   21.2820000  
H 17.3380000   16.3010000   22.3270000  
H 16.5460000   16.3280000   25.2870000  
C 18.0610000   18.4270000   21.2230000  
C 19.3010000   17.8690000   21.1240000  
C 19.8390000   17.7850000   19.7960000  
C 19.1790000   17.8970000   18.5680000  
C 17.8860000   18.4150000   18.7490000  
C 17.3590000   18.6940000   20.0160000  
C 20.2920000   17.4490000   22.0440000  
C 21.4310000   17.0530000   21.3190000  
N 21.1290000   17.2710000   19.9590000  
O 22.7880000   16.4550000   23.2550000  
C 22.7320000   16.5860000   21.9320000  
O 23.7180000   16.1040000   21.3770000  
O 17.2110000   18.8460000   17.7010000  
O 16.1390000   19.3390000   20.0100000  
H 20.2350000   17.5690000   23.0920000  
H 21.9250000   16.8170000   23.5370000  
H 21.6650000   17.0750000   19.1160000  
H 17.8220000   18.5530000   16.9600000  
H 15.9450000   19.3960000   19.1090000  
C 19.8810000   17.6240000   17.2330000  
C 19.4090000   16.5250000   16.4300000  
C 19.9940000   16.2770000   15.2080000  
C 21.0750000   17.1240000   14.7300000  
C 21.5710000   18.1510000   15.5540000  
C 20.9940000   18.3530000   16.8120000  
C 18.2940000   15.6500000   16.5330000  
C 18.3580000   14.8700000   15.3630000  
N 19.3860000   15.2680000   14.5330000  
O 16.4500000   13.6140000   15.9100000  
C 17.4660000   13.7850000   15.0480000  
O 17.6110000   13.0590000   14.0660000  
O 22.4460000   19.0110000   15.0350000  
O 21.4090000   19.3910000   17.6280000  
H 17.5600000   15.5880000   17.3040000  
H 16.1630000   14.5230000   16.2270000  
H 19.5030000   14.8240000   13.6520000  
H 22.5190000   19.7220000   15.6640000  
H 20.7280000   19.6320000   18.2810000  
H 21.4830000   17.0350000   13.7190000  
