76
100 
C 16.6990000   11.7480000   26.1960000  
C 17.2120000   10.6280000   25.3910000  
C 17.3720000   10.7840000   24.0090000  
C 17.2180000   12.0180000   23.3510000  
C 16.7110000   13.1420000   24.0650000  
C 16.4340000   12.9930000   25.4210000  
C 17.9220000    9.9270000   23.0790000  
C 17.8760000   10.5940000   21.8530000  
N 17.3690000   11.8680000   22.0330000  
O 18.7200000    8.5820000   20.7660000  
C 18.2220000    9.8540000   20.5550000  
O 18.0620000   10.3480000   19.4670000  
O 16.0700000   14.0140000   26.2020000  
O 16.6150000   11.5710000   27.3770000  
H 17.2920000    9.6570000   25.8670000  
H 18.2270000    8.9530000   23.2940000  
H 18.6530000    8.4510000   21.7350000  
H 15.9060000   14.7530000   25.6390000  
C 16.6810000   14.4510000   23.3070000  
C 15.5280000   14.9220000   22.7450000  
C 15.4830000   16.1150000   22.1370000  
C 16.5710000   16.9470000   21.8960000  
C 17.7240000   16.5510000   22.5470000  
C 17.7930000   15.2990000   23.2210000  
C 14.2650000   14.2320000   22.6300000  
C 13.4810000   15.1520000   21.9410000  
N 14.2400000   16.2400000   21.5890000  
O 11.5670000   13.7910000   21.6920000  
C 12.0570000   15.0230000   21.6350000  
O 11.3480000   15.8680000   21.1210000  
O 18.9410000   17.2790000   22.5030000  
O 19.0350000   14.9520000   23.7210000  
H 14.0480000   13.2860000   23.0810000  
H 12.4440000   13.4060000   21.8720000  
H 14.0250000   16.9960000   20.8860000  
H 18.9920000   17.9800000   21.8650000  
H 19.6760000   15.6520000   23.4720000  
C 16.4830000   18.1940000   21.1900000  
C 15.5950000   19.1760000   21.7320000  
C 15.3330000   20.3270000   21.0660000  
C 15.8440000   20.7280000   19.8180000  
C 16.6960000   19.7340000   19.2280000  
C 16.9970000   18.5150000   19.9010000  
C 14.8350000   19.2370000   22.9200000  
C 14.0340000   20.4280000   22.8880000  
N 14.4680000   21.0800000   21.7670000  
O 12.6530000   19.9520000   24.8070000  
C 13.0610000   20.8650000   23.9120000  
O 12.6510000   22.0340000   23.9750000  
O 17.1180000   20.0030000   17.9410000  
O 17.7150000   17.6550000   19.1840000  
H 14.7470000   18.4340000   23.6510000  
H 13.1110000   19.1790000   24.5030000  
H 14.0380000   21.8830000   21.3490000  
H 16.8160000   20.8530000   17.6390000  
H 17.8730000   17.8940000   18.2550000  
C 15.3770000   22.0080000   19.2400000  
C 15.6960000   23.2970000   19.7120000  
C 15.3910000   24.3880000   18.9840000  
C 14.4490000   24.3470000   17.9470000  
C 13.9820000   23.0810000   17.5140000  
C 14.4420000   21.9030000   18.1640000  
C 16.4950000   23.7030000   20.8590000  
C 16.5170000   25.0470000   20.8810000  
N 15.9350000   25.4480000   19.6400000  
O 17.5010000   25.1650000   22.9830000  
C 17.1130000   25.9160000   21.9590000  
O 17.2450000   27.1280000   21.8970000  
O 13.1070000   23.0450000   16.4700000  
O 13.9800000   20.6870000   17.6890000  
H 16.9350000   22.9890000   21.5880000  
H 17.2170000   24.2340000   22.8690000  
H 16.0580000   26.4190000   19.3170000  
H 12.7780000   22.1480000   16.3180000  
H 14.3570000   19.9700000   18.2380000  
H 14.1280000   25.2500000   17.4060000  
