76
100 
C 12.7600000   10.7910000   22.4350000  
C 11.3120000   10.9650000   22.1540000  
C 10.8270000   12.0930000   21.6700000  
C 11.6550000   13.1390000   21.1960000  
C 13.0510000   13.1310000   21.4700000  
C 13.5600000   12.0360000   22.1130000  
C  9.5440000   12.4530000   21.2910000  
C  9.6260000   13.7080000   20.8000000  
N 10.9060000   14.1200000   20.6760000  
O  7.3300000   13.9480000   20.2220000  
C  8.4870000   14.5550000   20.3630000  
O  8.6140000   15.7290000   20.0250000  
O 14.8100000   11.9580000   22.4510000  
O 13.2370000    9.7690000   22.9520000  
H 10.7640000   10.0680000   22.2390000  
H  8.5090000   11.9780000   21.5090000  
H  7.4720000   13.0010000   20.4620000  
H 15.2390000   12.8250000   22.3890000  
C 13.8870000   14.3890000   21.2610000  
C 14.4350000   14.9760000   22.3700000  
C 15.3240000   16.0650000   22.2460000  
C 15.5880000   16.7390000   20.9980000  
C 15.0430000   16.0830000   19.8180000  
C 14.1540000   15.0230000   20.0040000  
C 14.3690000   14.6580000   23.7760000  
C 15.2070000   15.5660000   24.4270000  
N 15.8180000   16.4980000   23.4590000  
O 14.9060000   14.7620000   26.5910000  
C 15.5860000   15.5910000   25.8600000  
O 16.2990000   16.3970000   26.4320000  
O 15.4260000   16.4490000   18.5450000  
O 13.8590000   14.3760000   18.8340000  
H 13.8180000   13.7750000   24.2260000  
H 14.1860000   14.4120000   26.0230000  
H 16.4770000   17.2190000   23.6420000  
H 16.0640000   17.1880000   18.8010000  
H 14.1750000   15.0080000   18.1520000  
C 16.3410000   18.0350000   21.0070000  
C 17.5980000   18.2350000   21.6380000  
C 18.0810000   19.5060000   21.9040000  
C 17.5160000   20.7080000   21.4200000  
C 16.2650000   20.5400000   20.7940000  
C 15.6950000   19.2670000   20.5490000  
C 18.4670000   17.3630000   22.3360000  
C 19.5140000   18.1700000   22.9160000  
N 19.2280000   19.4920000   22.6420000  
O 20.5280000   16.4240000   24.1690000  
C 20.6060000   17.6950000   23.7690000  
O 21.4770000   18.4210000   24.0160000  
O 15.6040000   21.6330000   20.3650000  
O 14.4140000   19.3100000   20.0660000  
H 18.3550000   16.2580000   22.4050000  
H 19.6480000   16.0820000   23.9210000  
H 19.7240000   20.2700000   23.0940000  
H 16.1820000   22.3720000   20.7460000  
H 13.9280000   20.0240000   20.4990000  
C 18.0590000   22.0320000   21.8530000  
C 19.1040000   22.6160000   21.0970000  
C 19.6470000   23.8330000   21.4370000  
C 19.1340000   24.6170000   22.4670000  
C 18.0400000   24.1070000   23.2750000  
C 17.5460000   22.8080000   22.9520000  
C 19.6940000   22.1940000   19.8760000  
C 20.4580000   23.2200000   19.3870000  
N 20.5420000   24.1590000   20.4540000  
O 20.9130000   22.2870000   17.2250000  
C 21.0340000   23.3830000   18.0310000  
O 21.5820000   24.4060000   17.6560000  
O 17.5470000   24.8660000   24.2780000  
O 16.5830000   22.3130000   23.7450000  
H 19.5210000   21.2330000   19.4000000  
H 20.5320000   21.5520000   17.7990000  
H 21.0620000   25.0500000   20.3740000  
H 16.8840000   24.3590000   24.7810000  
H 16.3210000   21.3900000   23.5490000  
H 19.4170000   25.6520000   22.6810000  
