76
100 
C 12.7080000   11.6480000   19.0760000  
C 11.4570000   11.4410000   19.8350000  
C 10.9690000   12.3830000   20.6440000  
C 11.6510000   13.5290000   20.9530000  
C 12.8790000   13.7730000   20.3410000  
C 13.4150000   12.8920000   19.4040000  
C  9.8440000   12.4390000   21.4110000  
C  9.8280000   13.6580000   22.0470000  
N 11.0130000   14.3200000   21.7750000  
O  7.7280000   13.3440000   23.1370000  
C  8.7710000   14.1580000   23.0110000  
O  8.8490000   15.2630000   23.4970000  
O 14.6890000   13.0880000   18.9040000  
O 13.1850000   10.8430000   18.2670000  
H 10.9300000   10.4850000   19.5860000  
H  9.0550000   11.6340000   21.4860000  
H  8.2010000   12.5750000   22.7820000  
H 14.9210000   13.9870000   19.1510000  
C 13.6600000   14.8700000   20.8280000  
C 14.7890000   14.6170000   21.6420000  
C 15.5310000   15.6650000   22.0770000  
C 15.2090000   16.9950000   21.9500000  
C 14.0580000   17.2430000   21.1370000  
C 13.3140000   16.1860000   20.5190000  
C 15.4440000   13.4250000   22.0820000  
C 16.6520000   13.8230000   22.6800000  
N 16.6930000   15.2060000   22.6620000  
O 17.6560000   11.6080000   22.9760000  
C 17.7490000   12.9290000   23.1740000  
O 18.6840000   13.5100000   23.7560000  
O 13.8640000   18.5210000   20.7640000  
O 12.2170000   16.4550000   19.6890000  
H 15.1380000   12.3520000   21.8870000  
H 16.7780000   11.3790000   22.5690000  
H 17.4460000   15.7080000   23.0140000  
H 13.9120000   19.1200000   21.5080000  
H 12.1980000   17.4130000   19.5630000  
C 16.0950000   18.1000000   22.4210000  
C 17.3390000   18.3110000   21.8880000  
C 18.0310000   19.4670000   22.2920000  
C 17.6780000   20.4380000   23.1940000  
C 16.4050000   20.1660000   23.7280000  
C 15.6640000   19.0580000   23.3070000  
C 18.0390000   17.6930000   20.8140000  
C 19.1380000   18.5580000   20.5670000  
N 19.1550000   19.5490000   21.5290000  
O 19.7780000   17.4710000   18.5610000  
C 20.0780000   18.4850000   19.4200000  
O 21.0400000   19.2040000   19.0920000  
O 15.7540000   21.0840000   24.4750000  
O 14.3790000   18.9550000   23.8050000  
H 17.7160000   16.8060000   20.2510000  
H 19.0980000   16.9990000   19.1440000  
H 19.7420000   20.3590000   21.5100000  
H 16.3870000   21.7400000   24.7530000  
H 14.4010000   19.4310000   24.6740000  
C 18.3640000   21.7980000   23.4560000  
C 18.6510000   22.6530000   22.3500000  
C 19.4570000   23.7680000   22.5850000  
C 19.9080000   24.2200000   23.8270000  
C 19.5820000   23.3990000   24.9270000  
C 18.8700000   22.1890000   24.7620000  
C 18.2040000   22.6340000   21.0480000  
C 18.7830000   23.7640000   20.4200000  
N 19.5170000   24.4750000   21.4090000  
O 17.8300000   23.3840000   18.2910000  
C 18.5170000   24.2420000   19.0350000  
O 18.7550000   25.3910000   18.7030000  
O 20.1150000   23.8400000   26.0930000  
O 18.8400000   21.3920000   25.8680000  
H 17.4780000   21.9540000   20.6050000  
H 17.7840000   22.6640000   18.9330000  
H 20.0340000   25.3100000   21.2480000  
H 21.0300000   24.0360000   25.8940000  
H 19.4050000   21.7900000   26.5690000  
H 20.2330000   25.1910000   23.9210000  
