76
100 
C 15.5000000   19.0380000   28.6330000  
C 15.5980000   17.9680000   29.5670000  
C 15.8670000   16.7580000   29.0720000  
C 16.3440000   16.5130000   27.7350000  
C 16.3400000   17.5790000   26.7980000  
C 15.8050000   18.7410000   27.2220000  
C 15.9830000   15.4630000   29.7400000  
C 16.4600000   14.6460000   28.6690000  
N 16.6370000   15.2790000   27.4770000  
O 16.8700000   12.5990000   30.0220000  
C 16.6860000   13.1490000   28.7660000  
O 16.8520000   12.4380000   27.8640000  
O 15.5880000   19.7470000   26.3890000  
O 15.0720000   20.0880000   29.1430000  
H 15.3230000   18.1430000   30.5600000  
H 15.8490000   15.2380000   30.7700000  
H 16.5800000   13.3750000   30.5560000  
H 15.5690000   19.2990000   25.5440000  
C 16.5430000   17.3030000   25.3570000  
C 15.5010000   16.8910000   24.5820000  
C 15.5540000   16.8500000   23.2330000  
C 16.6110000   17.3730000   22.4690000  
C 17.7630000   17.7720000   23.2000000  
C 17.7220000   17.6940000   24.6160000  
C 14.1220000   16.5710000   24.9640000  
C 13.3970000   16.4020000   23.7860000  
N 14.3070000   16.4800000   22.7110000  
O 11.3490000   16.1690000   24.8980000  
C 11.9820000   16.0600000   23.7090000  
O 11.4920000   15.7000000   22.6630000  
O 18.9910000   18.2330000   22.6120000  
O 18.6920000   18.2830000   25.2810000  
H 13.7730000   16.3910000   25.9800000  
H 11.9930000   16.3450000   25.5210000  
H 14.0670000   16.4150000   21.7020000  
H 18.9010000   18.2140000   21.6670000  
H 19.4610000   18.4060000   24.6370000  
C 16.4520000   17.4740000   21.0250000  
C 15.9680000   18.6690000   20.3790000  
C 15.7620000   18.7090000   19.0440000  
C 15.9290000   17.5950000   18.1730000  
C 16.3340000   16.4250000   18.7760000  
C 16.6490000   16.4110000   20.1550000  
C 15.5120000   19.9720000   20.8850000  
C 15.0960000   20.7290000   19.7660000  
N 15.2530000   19.9510000   18.6480000  
O 14.5740000   22.7050000   21.0180000  
C 14.5460000   22.1120000   19.8090000  
O 14.0790000   22.6710000   18.7990000  
O 16.4160000   15.2130000   18.0680000  
O 17.2160000   15.2970000   20.6960000  
H 15.4980000   20.3170000   21.9200000  
H 15.0390000   22.1680000   21.7110000  
H 15.2180000   20.3280000   17.6970000  
H 15.9570000   15.3270000   17.2040000  
H 17.4370000   14.5810000   20.1290000  
C 15.4350000   17.6990000   16.7700000  
C 16.3550000   18.2040000   15.7740000  
C 15.9840000   18.3710000   14.4920000  
C 14.6680000   18.0490000   14.1070000  
C 13.7380000   17.5230000   15.0480000  
C 14.1390000   17.3670000   16.3640000  
C 17.7130000   18.6310000   15.8120000  
C 18.1080000   19.0510000   14.5260000  
N 16.9900000   18.9100000   13.7090000  
O 20.2670000   19.5350000   15.1720000  
C 19.4140000   19.6050000   14.1860000  
O 19.6730000   20.0070000   13.1080000  
O 12.4780000   17.3110000   14.7270000  
O 13.3480000   16.8080000   17.2900000  
H 18.4280000   18.6310000   16.6750000  
H 19.7290000   19.1330000   15.8590000  
H 16.9660000   19.1620000   12.7850000  
H 12.3520000   17.4800000   13.8080000  
H 12.5580000   16.6050000   16.8130000  
H 14.2650000   18.2930000   13.0840000  
