76
100 
C 19.5530000   14.6820000   27.6240000  
C 18.6030000   13.6470000   28.1030000  
C 17.4430000   13.4080000   27.3970000  
C 17.1710000   13.9170000   26.1270000  
C 17.9630000   14.9820000   25.6020000  
C 19.1290000   15.3510000   26.3170000  
C 16.3780000   12.5540000   27.7130000  
C 15.5120000   12.6560000   26.6730000  
N 15.9820000   13.5300000   25.7040000  
O 13.7690000   11.3310000   27.6960000  
C 14.1630000   12.0200000   26.5730000  
O 13.4840000   12.0620000   25.5690000  
O 19.9070000   16.2810000   25.7680000  
O 20.5370000   15.0410000   28.2290000  
H 18.7860000   13.2010000   29.0890000  
H 16.1880000   11.8190000   28.5130000  
H 14.5160000   11.4900000   28.2890000  
H 19.5250000   16.7080000   24.9750000  
C 17.5150000   15.5990000   24.4250000  
C 16.5100000   16.5540000   24.5270000  
C 16.0640000   17.1420000   23.4300000  
C 16.4860000   16.9940000   22.1290000  
C 17.5440000   15.9920000   21.9990000  
C 18.0650000   15.3400000   23.1290000  
C 15.9400000   17.2160000   25.6390000  
C 15.1290000   18.2080000   25.1870000  
N 15.1320000   18.1300000   23.8060000  
O 14.2980000   18.8080000   27.4120000  
C 14.4960000   19.1780000   26.1140000  
O 14.1220000   20.3010000   25.7280000  
O 17.8720000   15.6930000   20.7090000  
O 19.0930000   14.4200000   22.9970000  
H 16.1850000   17.1270000   26.7140000  
H 14.3630000   17.8460000   27.3680000  
H 14.7430000   18.7770000   23.1600000  
H 17.3230000   16.2950000   20.1410000  
H 19.5750000   14.7540000   22.2710000  
C 15.8830000   17.8440000   21.0890000  
C 16.7070000   18.6730000   20.2810000  
C 16.1840000   19.5390000   19.3650000  
C 14.7990000   19.6050000   19.0280000  
C 13.9410000   18.8200000   19.7970000  
C 14.4930000   17.9070000   20.7760000  
C 18.1640000   18.8890000   20.2080000  
C 18.4550000   19.8930000   19.3260000  
N 17.1890000   20.2420000   18.7460000  
O 20.7460000   20.0470000   19.6360000  
C 19.7240000   20.5680000   18.9240000  
O 19.8360000   21.5290000   18.1390000  
O 12.5520000   18.8630000   19.7330000  
O 13.6310000   17.0030000   21.4570000  
H 18.8780000   18.5610000   20.9170000  
H 20.4480000   19.1980000   20.1030000  
H 17.0510000   20.9810000   18.0910000  
H 12.3850000   19.6150000   19.1050000  
H 12.6480000   17.2540000   21.3970000  
C 14.2760000   20.5860000   18.0750000  
C 13.7690000   20.1880000   16.8430000  
C 13.2700000   21.1190000   15.9420000  
C 13.3330000   22.5190000   16.1340000  
C 13.8840000   22.9610000   17.3750000  
C 14.3390000   21.9830000   18.3380000  
C 13.5780000   18.8530000   16.3170000  
C 12.9450000   19.0700000   15.1410000  
N 12.8110000   20.4480000   14.8250000  
O 12.6280000   16.7040000   14.6890000  
C 12.3850000   17.9530000   14.2460000  
O 11.7920000   18.2250000   13.2050000  
O 14.0090000   24.3780000   17.4780000  
O 14.8700000   22.4930000   19.4600000  
H 13.8480000   18.0050000   16.7960000  
H 13.0940000   16.8880000   15.5440000  
H 12.4290000   20.8310000   13.9640000  
H 14.3320000   24.6000000   18.3090000  
H 15.0620000   21.7500000   20.0570000  
H 13.0120000   23.3080000   15.3730000  
