76
100 
C 10.6770000   12.6030000   19.4020000  
C  9.6520000   12.6910000   20.4610000  
C  9.7660000   13.5910000   21.4730000  
C 10.8330000   14.4150000   21.5780000  
C 12.0000000   14.3270000   20.6900000  
C 11.8900000   13.4690000   19.6430000  
C  8.9610000   13.8630000   22.6200000  
C  9.5590000   14.9250000   23.2060000  
N 10.7170000   15.2340000   22.5830000  
O  7.9190000   15.1950000   24.9760000  
C  9.1130000   15.6430000   24.4410000  
O  9.6870000   16.6080000   24.9390000  
O 12.8940000   13.2300000   18.6840000  
O 10.4560000   11.9470000   18.3860000  
H  8.7650000   12.0330000   20.3350000  
H  7.9740000   13.4180000   22.8460000  
H  7.6470000   14.4480000   24.4140000  
H 13.7560000   13.7130000   18.9910000  
C 13.1530000   15.2440000   20.8340000  
C 14.4170000   14.6880000   21.0450000  
C 15.5150000   15.4510000   21.3240000  
C 15.5180000   16.8310000   21.4670000  
C 14.2470000   17.4550000   21.1810000  
C 13.0590000   16.6880000   20.7880000  
C 14.7710000   13.3390000   21.0990000  
C 16.0330000   13.2880000   21.6910000  
N 16.5350000   14.6380000   21.8090000  
O 16.0480000   10.9390000   21.7170000  
C 16.7870000   12.0560000   21.9820000  
O 17.9360000   11.9730000   22.4440000  
O 14.1150000   18.8450000   21.2270000  
O 11.8930000   17.3070000   20.5360000  
H 14.1540000   12.4670000   20.9020000  
H 15.1670000   11.2390000   21.6480000  
H 17.2520000   14.9500000   22.3510000  
H 14.9950000   19.1220000   21.6490000  
H 11.9010000   18.2190000   20.8450000  
C 16.7500000   17.5770000   21.8140000  
C 17.2070000   18.5210000   20.9860000  
C 18.3040000   19.3710000   21.2800000  
C 19.0080000   19.3840000   22.4580000  
C 18.4450000   18.4940000   23.4270000  
C 17.3550000   17.6230000   23.1220000  
C 16.7350000   18.8900000   19.6980000  
C 17.7210000   19.7600000   19.1350000  
N 18.7130000   20.1000000   20.1820000  
O 16.4560000   20.1440000   17.1450000  
C 17.5650000   20.4860000   17.8640000  
O 18.2890000   21.3820000   17.4620000  
O 18.9230000   18.3770000   24.6870000  
O 16.8370000   16.7240000   23.9630000  
H 15.8360000   18.5370000   19.2290000  
H 15.9750000   19.5730000   17.7190000  
H 19.4030000   20.8930000   20.1820000  
H 19.8370000   18.7120000   24.7430000  
H 17.2170000   16.7930000   24.8400000  
C 20.1520000   20.3840000   22.7260000  
C 19.8830000   21.7790000   22.6870000  
C 20.8880000   22.6960000   22.9470000  
C 22.1310000   22.3090000   23.4710000  
C 22.3460000   21.0090000   23.6820000  
C 21.4020000   20.0520000   23.2690000  
C 18.6960000   22.6050000   22.4360000  
C 19.0870000   23.9460000   22.4380000  
N 20.4270000   23.9920000   22.7280000  
O 17.0160000   24.8050000   21.5870000  
C 18.2090000   25.1010000   22.1000000  
O 18.5090000   26.2750000   22.2210000  
O 23.5640000   20.6590000   24.2630000  
O 21.7820000   18.7830000   23.4710000  
H 17.7200000   22.2610000   22.0540000  
H 17.0950000   23.8900000   21.5230000  
H 20.9870000   24.7610000   22.7710000  
H 24.0500000   21.4890000   24.5270000  
H 22.5060000   18.8770000   24.1380000  
H 22.8140000   23.0780000   23.7340000  
