76
100 
C 15.1730000   18.9240000   29.2470000  
C 15.7810000   17.7060000   29.7450000  
C 16.3680000   16.7440000   28.9520000  
C 16.3240000   16.7830000   27.5380000  
C 15.6640000   17.9530000   26.9240000  
C 15.1330000   18.9380000   27.7450000  
C 17.0550000   15.5330000   29.2680000  
C 17.4280000   15.0520000   28.0330000  
N 17.0630000   15.8480000   26.9420000  
O 18.5040000   13.1770000   28.9580000  
C 18.2170000   13.8050000   27.8310000  
O 18.5570000   13.4040000   26.7200000  
O 14.4750000   20.1030000   27.3010000  
O 14.8450000   19.7820000   30.0050000  
H 15.9530000   17.6410000   30.8220000  
H 17.1650000   15.0370000   30.2280000  
H 17.9380000   13.6390000   29.6090000  
H 14.4870000   20.1410000   26.3510000  
C 15.6430000   17.9930000   25.4290000  
C 14.4600000   17.7190000   24.6370000  
C 14.5160000   17.4340000   23.2730000  
C 15.6670000   17.7130000   22.5040000  
C 16.8600000   18.0740000   23.2630000  
C 16.8580000   18.1370000   24.6780000  
C 13.1010000   17.5020000   25.1170000  
C 12.3940000   17.1430000   23.9010000  
N 13.2450000   17.1810000   22.7860000  
O 10.3280000   16.8090000   25.0660000  
C 10.9020000   16.7990000   23.8270000  
O 10.2850000   16.6860000   22.7550000  
O 18.0570000   18.3060000   22.6310000  
O 18.0810000   18.2910000   25.3270000  
H 12.6460000   17.5910000   26.0750000  
H 10.9860000   17.0440000   25.7430000  
H 12.9510000   17.0260000   21.8210000  
H 17.9630000   18.6580000   21.7300000  
H 18.8100000   18.3940000   24.6910000  
C 15.7080000   17.4390000   21.0880000  
C 15.1840000   18.3160000   20.1850000  
C 15.3660000   18.1100000   18.8880000  
C 15.9610000   17.0240000   18.2890000  
C 16.4530000   16.0830000   19.2490000  
C 16.3780000   16.2780000   20.5870000  
C 14.6550000   19.6560000   20.3590000  
C 14.5210000   20.2000000   19.0850000  
N 14.8920000   19.1870000   18.1730000  
O 13.8410000   22.4300000   19.8060000  
C 14.1290000   21.6650000   18.7200000  
O 14.1960000   22.0810000   17.5910000  
O 17.1320000   14.9260000   18.7980000  
O 16.9310000   15.3280000   21.4580000  
H 14.4170000   20.1800000   21.2850000  
H 13.9450000   21.7350000   20.5120000  
H 15.0010000   19.1910000   17.1750000  
H 17.1290000   14.9390000   17.7490000  
H 17.2330000   14.5430000   20.9950000  
C 16.2330000   16.8610000   16.8260000  
C 16.9960000   17.8030000   16.1040000  
C 17.1080000   17.7500000   14.7440000  
C 16.5790000   16.7220000   13.9870000  
C 15.9190000   15.7460000   14.7340000  
C 15.7930000   15.7490000   16.1360000  
C 17.6910000   18.9850000   16.5160000  
C 18.2130000   19.5390000   15.3370000  
N 17.8800000   18.7820000   14.2480000  
O 19.4840000   21.2440000   16.2670000  
C 18.9750000   20.7750000   15.1330000  
O 19.2270000   21.3760000   14.0480000  
O 15.4170000   14.5920000   14.1110000  
O 15.1120000   14.6760000   16.7460000  
H 17.8390000   19.3600000   17.5330000  
H 19.2260000   20.6130000   16.9800000  
H 17.8900000   19.1080000   13.2770000  
H 15.3810000   14.8520000   13.1690000  
H 14.6810000   14.1340000   16.0110000  
H 16.6730000   16.7120000   12.8960000  
