76
100 
C 15.5480000   10.9640000   24.3650000  
C 15.5260000    9.8220000   23.3970000  
C 15.4710000   10.1530000   22.0500000  
C 15.6330000   11.5140000   21.5660000  
C 15.6310000   12.6730000   22.4990000  
C 15.5300000   12.3500000   23.8550000  
C 15.1000000    9.3030000   20.9400000  
C 15.1090000   10.2440000   19.8640000  
N 15.4040000   11.5690000   20.2700000  
O 14.4190000    8.5610000   18.2280000  
C 14.7290000    9.8710000   18.4720000  
O 14.6390000   10.6540000   17.5480000  
O 15.5570000   13.2750000   24.8610000  
O 15.3790000   10.7790000   25.5440000  
H 15.3180000    8.8380000   23.8500000  
H 14.8700000    8.2440000   20.9530000  
H 14.6070000    8.1150000   19.0690000  
H 15.4420000   14.1270000   24.5410000  
C 15.6660000   14.0020000   21.9380000  
C 14.7090000   14.9870000   22.3330000  
C 14.8850000   16.3200000   22.0370000  
C 16.0030000   16.8670000   21.3690000  
C 17.0000000   15.8980000   21.0700000  
C 16.8700000   14.5280000   21.2730000  
C 13.4850000   14.8440000   23.0560000  
C 13.0120000   16.1380000   23.3290000  
N 13.9150000   17.0910000   22.7210000  
O 11.4400000   15.2780000   25.0410000  
C 12.0030000   16.3610000   24.3850000  
O 11.5630000   17.4940000   24.6080000  
O 18.1460000   16.3360000   20.3330000  
O 17.9910000   13.7320000   21.0670000  
H 12.9980000   13.9510000   23.4040000  
H 12.0220000   14.5890000   24.6280000  
H 13.9440000   18.0930000   22.8560000  
H 18.0350000   17.3060000   20.2350000  
H 18.7980000   14.2220000   21.1030000  
C 16.2350000   18.2700000   21.2830000  
C 16.8890000   18.9940000   22.3020000  
C 16.9210000   20.3590000   22.1960000  
C 16.2170000   21.1590000   21.2350000  
C 15.5140000   20.4280000   20.2470000  
C 15.4930000   18.9990000   20.2480000  
C 17.4910000   18.5750000   23.5840000  
C 17.7760000   19.7930000   24.1570000  
N 17.4320000   20.8340000   23.3470000  
O 18.4150000   18.9620000   26.2660000  
C 18.2820000   20.0440000   25.5180000  
O 18.5080000   21.0790000   25.9940000  
O 14.8670000   21.1810000   19.3430000  
O 14.7450000   18.3830000   19.3080000  
H 17.5080000   17.5800000   24.0070000  
H 17.9480000   18.3000000   25.7320000  
H 17.2450000   21.8360000   23.5980000  
H 14.8490000   22.1500000   19.6110000  
H 14.4100000   19.0900000   18.7490000  
C 16.0730000   22.6200000   21.3270000  
C 16.4870000   23.4220000   20.2500000  
C 16.5450000   24.7860000   20.3870000  
C 16.0100000   25.4600000   21.5200000  
C 15.3960000   24.6660000   22.5140000  
C 15.4440000   23.2770000   22.4090000  
C 17.2120000   23.0980000   19.0690000  
C 17.5880000   24.3230000   18.4790000  
N 17.0850000   25.3570000   19.3070000  
O 18.7030000   23.5390000   16.5540000  
C 18.2180000   24.5840000   17.1930000  
O 18.5040000   25.7400000   16.8500000  
O 14.6930000   25.2900000   23.5390000  
O 14.6690000   22.6390000   23.3440000  
H 17.4540000   22.1310000   18.7330000  
H 18.5870000   22.8040000   17.2190000  
H 17.1350000   26.3560000   19.0790000  
H 14.0700000   24.8040000   24.1040000  
H 14.7310000   21.6770000   23.1340000  
H 15.9740000   26.5090000   21.5670000  
