76
100 
C 14.9680000   10.3760000   22.7220000  
C 13.7910000    9.8870000   21.9040000  
C 13.1000000   10.8370000   21.1820000  
C 13.4580000   12.2050000   21.2090000  
C 14.7090000   12.6060000   21.7390000  
C 15.4840000   11.7590000   22.4540000  
C 11.7900000   10.8090000   20.5560000  
C 11.4720000   12.1050000   20.1640000  
N 12.6060000   12.9080000   20.4500000  
O  9.2960000   11.6990000   19.4470000  
C 10.2300000   12.6240000   19.5940000  
O 10.2150000   13.8100000   19.2120000  
O 16.6090000   12.1720000   23.1870000  
O 15.5570000    9.6130000   23.4660000  
H 13.4360000    8.8750000   22.1040000  
H 11.1160000    9.9740000   20.5270000  
H  9.6350000   10.9110000   19.9010000  
H 16.5790000   13.1190000   23.0500000  
C 15.0950000   13.9940000   21.6030000  
C 14.5250000   15.0180000   22.4620000  
C 14.9600000   16.3510000   22.3850000  
C 15.8790000   16.8020000   21.4170000  
C 16.4470000   15.8070000   20.5610000  
C 16.0920000   14.4670000   20.6690000  
C 13.4970000   14.9250000   23.4540000  
C 13.3850000   16.2390000   23.9490000  
N 14.2420000   17.1330000   23.2810000  
O 11.7450000   15.4900000   25.5240000  
C 12.4720000   16.5650000   25.0420000  
O 12.3950000   17.6830000   25.5120000  
O 17.3680000   16.0600000   19.6060000  
O 16.6430000   13.5970000   19.7650000  
H 12.9540000   14.0120000   23.7580000  
H 11.9140000   14.7580000   24.9390000  
H 14.3370000   18.1080000   23.4070000  
H 17.3310000   17.0470000   19.5320000  
H 17.0440000   14.1040000   19.0890000  
C 16.1660000   18.2630000   21.2990000  
C 16.6810000   18.9110000   22.4330000  
C 16.8900000   20.2920000   22.3810000  
C 16.7300000   21.1260000   21.2240000  
C 16.2560000   20.4080000   20.0060000  
C 16.1640000   19.0170000   20.0390000  
C 16.9580000   18.5280000   23.8100000  
C 17.2900000   19.7280000   24.4600000  
N 17.2690000   20.8100000   23.5990000  
O 17.6120000   18.8230000   26.7900000  
C 17.7510000   19.8770000   25.9560000  
O 18.0890000   20.9590000   26.3980000  
O 16.0230000   21.1260000   18.8730000  
O 15.7860000   18.4530000   18.8420000  
H 16.8560000   17.5500000   24.3370000  
H 17.3280000   18.0430000   26.2800000  
H 17.6060000   21.6770000   23.6740000  
H 15.8090000   22.1010000   19.0550000  
H 15.2280000   19.1810000   18.4410000  
C 17.1450000   22.5520000   21.2220000  
C 18.4560000   22.8560000   20.7810000  
C 18.9720000   24.1130000   20.6050000  
C 18.1720000   25.2820000   20.8730000  
C 16.8390000   25.0110000   21.2760000  
C 16.2940000   23.6630000   21.3380000  
C 19.4340000   21.9430000   20.2780000  
C 20.5760000   22.7220000   20.0130000  
N 20.2980000   24.0380000   20.2160000  
O 21.8520000   20.8870000   19.2560000  
C 21.8440000   22.2260000   19.4210000  
O 22.7670000   22.9460000   19.2040000  
O 16.0050000   26.0310000   21.4740000  
O 15.0070000   23.4320000   21.4350000  
H 19.3150000   20.8360000   20.0040000  
H 20.9830000   20.5390000   19.5350000  
H 20.8250000   24.8310000   19.9400000  
H 15.1220000   25.6330000   21.5710000  
H 14.8870000   22.4640000   21.5080000  
H 18.5480000   26.2870000   20.7460000  
