76
100 
C 11.6500000   16.1460000   27.6350000  
C 10.2820000   16.6330000   27.3500000  
C 10.0340000   17.2180000   26.1400000  
C 11.0510000   17.4630000   25.1270000  
C 12.3720000   17.0620000   25.4010000  
C 12.6620000   16.4530000   26.5730000  
C  8.8660000   17.6230000   25.5590000  
C  9.1560000   17.9330000   24.2830000  
N 10.5130000   17.8630000   24.0000000  
O  6.9190000   18.1670000   23.6960000  
C  8.1710000   18.2030000   23.2330000  
O  8.5090000   18.3250000   22.0930000  
O 13.9790000   16.0530000   26.7920000  
O 11.9930000   15.4660000   28.5890000  
H  9.4880000   16.4370000   28.0550000  
H  7.8660000   17.6280000   25.9240000  
H  6.9700000   18.1710000   24.6690000  
H 14.5400000   16.3990000   26.0870000  
C 13.3550000   17.2790000   24.3300000  
C 13.9400000   18.5320000   24.2220000  
C 14.8530000   18.7310000   23.2340000  
C 15.2520000   17.7880000   22.2990000  
C 14.6270000   16.5460000   22.3820000  
C 13.6220000   16.3070000   23.3440000  
C 13.9720000   19.7460000   24.9940000  
C 14.9780000   20.5480000   24.4510000  
N 15.4070000   19.9800000   23.2850000  
O 14.5330000   22.2720000   25.9810000  
C 15.2830000   21.9710000   24.9250000  
O 16.1550000   22.6530000   24.3880000  
O 14.7930000   15.6160000   21.3780000  
O 12.9750000   15.1190000   23.4230000  
H 13.3590000   20.1060000   25.8990000  
H 14.0470000   21.5400000   26.1730000  
H 16.0260000   20.3810000   22.5860000  
H 15.2510000   16.0920000   20.6880000  
H 13.1270000   14.7010000   22.5910000  
C 16.3200000   17.9660000   21.3400000  
C 17.4660000   17.2370000   21.5380000  
C 18.5290000   17.2520000   20.6560000  
C 18.5040000   17.9760000   19.4690000  
C 17.3040000   18.6330000   19.1880000  
C 16.1950000   18.5660000   20.0600000  
C 17.8930000   16.4250000   22.6440000  
C 19.2440000   16.0790000   22.4250000  
N 19.5160000   16.4570000   21.1300000  
O 19.8700000   15.1580000   24.4490000  
C 20.2940000   15.5440000   23.2940000  
O 21.4710000   15.5100000   23.0310000  
O 17.1130000   19.3140000   17.9790000  
O 15.0370000   19.1290000   19.7280000  
H 17.3320000   16.3030000   23.5660000  
H 19.0190000   15.5180000   24.4410000  
H 20.4300000   16.2870000   20.7550000  
H 17.9370000   19.3600000   17.4630000  
H 15.0470000   19.4770000   18.8270000  
C 19.6740000   18.0080000   18.5050000  
C 19.5400000   17.5620000   17.1350000  
C 20.6520000   17.4930000   16.3010000  
C 21.9540000   17.6500000   16.7500000  
C 22.0930000   18.1420000   18.0190000  
C 20.9820000   18.3230000   18.8930000  
C 18.4780000   17.0130000   16.3670000  
C 18.9460000   16.8940000   15.0520000  
N 20.3120000   17.1190000   15.0460000  
O 16.9670000   16.1920000   13.8000000  
C 18.3200000   16.3960000   13.8490000  
O 18.9640000   16.1660000   12.8620000  
O 23.3530000   18.3370000   18.5600000  
O 21.3030000   18.7370000   20.1650000  
H 17.4050000   16.9660000   16.7820000  
H 16.6250000   16.2030000   14.7250000  
H 20.8440000   17.1490000   14.2030000  
H 23.9840000   17.9060000   17.9960000  
H 22.0880000   18.2810000   20.3840000  
H 22.7990000   17.4730000   16.1670000  
