76
100 
C 10.5910000   17.3150000   27.2090000  
C  9.3130000   17.4670000   26.4860000  
C  9.2950000   17.3420000   25.1390000  
C 10.4810000   17.2200000   24.3640000  
C 11.7550000   17.1290000   24.9560000  
C 11.8140000   17.1510000   26.3170000  
C  8.2100000   17.3450000   24.2720000  
C  8.7300000   17.1760000   23.0380000  
N 10.1470000   17.1850000   23.0980000  
O  6.5830000   16.9880000   21.9160000  
C  7.9090000   16.8870000   21.8040000  
O  8.4060000   16.4470000   20.7470000  
O 12.8900000   16.7890000   27.0290000  
O 10.7500000   17.4500000   28.4440000  
H  8.4420000   17.7030000   27.0290000  
H  7.1670000   17.3400000   24.6100000  
H  6.3530000   17.4930000   22.7470000  
H 13.4650000   16.3870000   26.3980000  
C 12.9400000   16.9440000   24.1240000  
C 13.8070000   18.0420000   24.0040000  
C 14.8830000   18.0170000   23.1190000  
C 15.2370000   16.9370000   22.3180000  
C 14.3920000   15.7920000   22.5060000  
C 13.2910000   15.7940000   23.3440000  
C 13.6130000   19.3390000   24.4790000  
C 14.6440000   20.0870000   23.9080000  
N 15.3580000   19.2750000   23.0150000  
O 14.0270000   22.0420000   25.1370000  
C 14.8810000   21.4600000   24.2950000  
O 15.7810000   22.1350000   23.7650000  
O 14.7080000   14.5970000   21.8670000  
O 12.4690000   14.6530000   23.3010000  
H 12.8040000   19.7460000   25.1240000  
H 13.3750000   21.3790000   25.3830000  
H 16.0710000   19.6350000   22.3330000  
H 14.9710000   14.9390000   21.0100000  
H 12.9590000   13.9050000   22.9840000  
C 16.2590000   17.0890000   21.2150000  
C 17.5650000   17.5190000   21.5690000  
C 18.5020000   17.8160000   20.6200000  
C 18.3320000   17.6520000   19.2480000  
C 17.0760000   17.0850000   18.8910000  
C 16.0780000   16.7450000   19.8320000  
C 18.2030000   17.7790000   22.8050000  
C 19.4810000   18.2890000   22.5960000  
N 19.6840000   18.2640000   21.2060000  
O 19.8540000   18.8980000   24.8200000  
C 20.2650000   19.0610000   23.5740000  
O 21.1330000   19.8970000   23.3320000  
O 16.8260000   16.8350000   17.5790000  
O 14.8470000   16.2870000   19.4060000  
H 17.6330000   17.7870000   23.7000000  
H 19.0340000   18.3270000   24.6650000  
H 20.5270000   18.4610000   20.6830000  
H 17.6760000   17.0540000   17.0550000  
H 14.7140000   16.2560000   18.4460000  
C 19.3150000   18.0560000   18.2900000  
C 20.5550000   17.3580000   18.0790000  
C 21.4260000   17.8380000   17.1160000  
C 21.2010000   19.0220000   16.3900000  
C 20.0350000   19.7580000   16.7720000  
C 19.1500000   19.3250000   17.7060000  
C 21.0490000   16.1200000   18.6080000  
C 22.2310000   15.8600000   17.9280000  
N 22.5280000   17.0380000   17.0970000  
O 22.6460000   13.7850000   18.8890000  
C 23.0920000   14.6480000   18.0300000  
O 23.9590000   14.3960000   17.1940000  
O 20.0330000   21.0340000   16.2980000  
O 18.1330000   20.1680000   17.9640000  
H 20.5320000   15.5420000   19.4260000  
H 21.8140000   14.1490000   19.2900000  
H 23.3450000   17.1060000   16.4800000  
H 20.9170000   21.3530000   16.0730000  
H 18.2500000   21.0740000   17.4890000  
H 21.8060000   19.3820000   15.5540000  
