76
100 
C 16.5780000   10.6600000   23.9130000  
C 16.8480000   10.5270000   25.3450000  
C 16.9280000   11.6300000   26.1460000  
C 16.7940000   12.9280000   25.6690000  
C 16.6360000   13.1670000   24.2700000  
C 16.4540000   12.0920000   23.4320000  
C 16.8740000   11.5930000   27.5270000  
C 16.6800000   12.9020000   27.8580000  
N 16.6060000   13.7250000   26.7220000  
O 16.5210000   12.3770000   30.1540000  
C 16.4510000   13.4230000   29.2540000  
O 16.2730000   14.6100000   29.5200000  
O 16.4190000   12.2160000   22.0510000  
O 16.6290000    9.6830000   23.1460000  
H 17.1380000    9.5930000   25.7450000  
H 16.9100000   10.6390000   28.1330000  
H 16.6210000   11.6380000   29.5970000  
H 16.1940000   13.1470000   21.8260000  
C 16.2290000   14.5420000   23.7460000  
C 17.1300000   15.2480000   22.9530000  
C 16.7740000   16.4890000   22.4740000  
C 15.4860000   17.0920000   22.6020000  
C 14.5540000   16.3610000   23.4560000  
C 14.9800000   15.1830000   24.0610000  
C 18.4010000   14.9400000   22.3300000  
C 18.6960000   15.9720000   21.4260000  
N 17.7140000   16.9250000   21.5660000  
O 20.6480000   14.9920000   20.5580000  
C 19.8520000   16.0800000   20.4840000  
O 19.9310000   17.0340000   19.7130000  
O 13.2780000   16.8530000   23.7450000  
O 14.1240000   14.6030000   24.9200000  
H 18.8980000   13.9790000   22.2990000  
H 20.2240000   14.3560000   21.0870000  
H 17.6510000   17.7530000   20.9560000  
H 13.0500000   17.5640000   23.1250000  
H 13.6590000   15.3640000   25.3160000  
C 15.1300000   18.3260000   21.8180000  
C 15.3730000   18.4400000   20.4570000  
C 15.3200000   19.6870000   19.8660000  
C 15.0880000   20.8930000   20.5390000  
C 14.7310000   20.7810000   21.8970000  
C 14.8220000   19.5370000   22.5050000  
C 15.7440000   17.5580000   19.3730000  
C 15.9050000   18.3440000   18.2310000  
N 15.6940000   19.6780000   18.5910000  
O 16.4190000   16.5260000   16.7040000  
C 16.1170000   17.8250000   16.8790000  
O 16.3120000   18.5740000   15.9020000  
O 14.3900000   21.8700000   22.6980000  
O 14.5210000   19.4510000   23.8030000  
H 15.7290000   16.4610000   19.3580000  
H 16.5750000   16.1380000   17.5720000  
H 15.5950000   20.4170000   17.8550000  
H 14.2820000   22.6850000   22.1230000  
H 14.2610000   20.4170000   24.0470000  
C 15.3200000   22.1980000   19.9030000  
C 14.4660000   22.6500000   18.8580000  
C 14.6080000   23.9280000   18.3160000  
C 15.6760000   24.7790000   18.6980000  
C 16.6270000   24.3180000   19.6100000  
C 16.3760000   23.0860000   20.2620000  
C 13.3460000   22.0160000   18.1620000  
C 12.8110000   23.0460000   17.3870000  
N 13.6320000   24.1280000   17.3600000  
O 10.9390000   21.7650000   16.6520000  
C 11.5820000   22.9480000   16.5390000  
O 11.2570000   23.7240000   15.6680000  
O 17.7000000   25.1720000   20.0860000  
O 17.2970000   22.7460000   21.2020000  
H 13.0840000   21.0190000   18.2400000  
H 11.4400000   21.3190000   17.3910000  
H 13.4520000   24.9000000   16.7030000  
H 18.3490000   24.6210000   20.5530000  
H 16.8310000   22.1010000   21.7820000  
H 15.7290000   25.8190000   18.2880000  
