76
100 
C 11.0250000   13.0900000   18.5910000  
C  9.9490000   12.5770000   19.4740000  
C 10.0230000   13.0190000   20.8190000  
C 11.0400000   13.8440000   21.3890000  
C 12.1530000   14.2440000   20.5640000  
C 12.1390000   13.9180000   19.2250000  
C  9.1170000   12.8590000   21.9280000  
C  9.6800000   13.5060000   23.0130000  
N 10.8230000   14.1800000   22.6500000  
O  7.8890000   12.8570000   24.4880000  
C  9.0880000   13.4760000   24.3520000  
O  9.6150000   13.9160000   25.3570000  
O 12.9370000   14.4260000   18.2890000  
O 11.0160000   12.8160000   17.4200000  
H  9.1120000   12.0290000   19.1100000  
H  8.1980000   12.3670000   21.8870000  
H  7.7830000   12.4070000   23.6440000  
H 13.6920000   14.7410000   18.8450000  
C 13.0870000   15.2590000   21.0240000  
C 14.3070000   14.8910000   21.5550000  
C 15.2680000   15.8460000   21.9140000  
C 15.0960000   17.2130000   21.7840000  
C 13.8470000   17.6320000   21.2850000  
C 12.8160000   16.6540000   20.9700000  
C 14.8890000   13.6780000   21.9400000  
C 16.1790000   13.9210000   22.3970000  
N 16.4420000   15.2710000   22.3540000  
O 16.6360000   11.7670000   23.3110000  
C 17.0890000   13.0100000   23.0170000  
O 18.2220000   13.3290000   23.2210000  
O 13.5300000   18.9550000   21.1750000  
O 11.5680000   17.0330000   20.5330000  
H 14.4980000   12.6120000   21.7970000  
H 15.8030000   11.7590000   22.8790000  
H 17.1870000   15.7940000   22.7740000  
H 13.8890000   19.3350000   22.0320000  
H 11.6750000   18.0080000   20.5300000  
C 16.2190000   18.1310000   22.0570000  
C 17.1690000   18.5290000   21.1010000  
C 18.1580000   19.3790000   21.4870000  
C 18.4430000   19.8920000   22.8060000  
C 17.4120000   19.5120000   23.6870000  
C 16.3620000   18.6950000   23.3260000  
C 17.3950000   18.2060000   19.7310000  
C 18.5200000   18.9570000   19.3640000  
N 18.9760000   19.6650000   20.4710000  
O 18.5450000   18.2680000   17.0590000  
C 19.1310000   19.0280000   18.0500000  
O 20.0730000   19.7250000   17.8270000  
O 17.6060000   19.8770000   24.9750000  
O 15.4580000   18.4530000   24.2980000  
H 16.8480000   17.6280000   19.0180000  
H 18.0300000   17.6560000   17.5590000  
H 19.4540000   20.5160000   20.3890000  
H 18.4800000   20.2450000   24.8790000  
H 15.9300000   18.4800000   25.1950000  
C 19.5730000   20.8670000   23.1320000  
C 19.5970000   22.2230000   22.6800000  
C 20.7330000   23.0350000   22.6970000  
C 21.9340000   22.5410000   23.2210000  
C 21.9200000   21.2290000   23.7420000  
C 20.7090000   20.4060000   23.7380000  
C 18.6110000   22.9120000   21.8970000  
C 19.1580000   24.1330000   21.5760000  
N 20.4200000   24.2820000   22.1530000  
O 17.2840000   25.1040000   20.3920000  
C 18.5670000   25.2900000   20.7990000  
O 19.1560000   26.3480000   20.5690000  
O 23.0540000   20.7570000   24.2440000  
O 20.6370000   19.2130000   24.4590000  
H 17.6420000   22.4940000   21.5690000  
H 17.0090000   24.3480000   20.8630000  
H 20.9930000   25.0770000   22.1840000  
H 23.5910000   21.5260000   24.5930000  
H 21.4820000   19.1810000   24.9860000  
H 22.7860000   23.2140000   23.2040000  
