76
100 
C 11.0130000   17.6310000   27.0860000  
C 11.4510000   18.4440000   28.2140000  
C 12.6940000   19.0160000   28.2070000  
C 13.5750000   18.9560000   27.1370000  
C 13.1980000   18.1790000   25.9400000  
C 12.0160000   17.4180000   26.0360000  
C 13.3590000   19.8300000   29.1900000  
C 14.5580000   20.1560000   28.5870000  
N 14.7300000   19.6030000   27.3140000  
O 15.2710000   21.3420000   30.5050000  
C 15.4890000   21.1150000   29.1640000  
O 16.3130000   21.7410000   28.5670000  
O 11.5590000   16.5780000   25.1060000  
O  9.9170000   17.0990000   27.1180000  
H 10.7610000   18.6720000   29.0220000  
H 12.8750000   20.0910000   30.0880000  
H 14.5570000   20.7510000   30.7020000  
H 12.3190000   16.5500000   24.4770000  
C 14.0220000   18.1830000   24.7460000  
C 14.8550000   17.0550000   24.6410000  
C 15.6560000   16.8490000   23.5370000  
C 15.6460000   17.6040000   22.3780000  
C 14.8320000   18.7980000   22.5050000  
C 13.9910000   19.0700000   23.6390000  
C 15.1320000   15.9940000   25.6300000  
C 15.8920000   15.0770000   24.8990000  
N 16.1940000   15.5790000   23.6360000  
O 16.1550000   13.4970000   26.7730000  
C 16.4940000   13.8210000   25.4980000  
O 17.2200000   13.0830000   24.9110000  
O 14.8580000   19.6860000   21.4710000  
O 13.0980000   20.0990000   23.5890000  
H 14.9320000   15.8700000   26.6980000  
H 15.3950000   14.1370000   26.8230000  
H 16.7890000   15.2110000   22.9570000  
H 15.0860000   19.2050000   20.6800000  
H 13.3760000   20.7820000   22.9170000  
C 16.3330000   17.1750000   21.1090000  
C 15.6570000   17.2190000   19.9300000  
C 16.2620000   16.9870000   18.7020000  
C 17.5990000   16.6360000   18.4590000  
C 18.3170000   16.5700000   19.7030000  
C 17.7370000   16.9140000   20.9680000  
C 14.2910000   17.3130000   19.6260000  
C 14.1310000   17.1220000   18.2540000  
N 15.3720000   16.9430000   17.6970000  
O 11.7170000   16.8200000   18.2420000  
C 12.8270000   17.1850000   17.4890000  
O 12.8010000   17.2490000   16.2630000  
O 19.6150000   16.1800000   19.5450000  
O 18.6050000   16.7940000   22.0440000  
H 13.3850000   17.5500000   20.1700000  
H 12.0360000   16.5860000   19.1070000  
H 15.5100000   16.5730000   16.7570000  
H 19.7240000   15.8610000   18.5860000  
H 19.5190000   16.7200000   21.6400000  
C 18.2060000   16.4920000   17.0710000  
C 18.4020000   17.6550000   16.3350000  
C 19.3320000   17.7240000   15.3230000  
C 19.9810000   16.5850000   14.8450000  
C 19.7430000   15.3970000   15.5420000  
C 18.9090000   15.2990000   16.6540000  
C 17.9960000   19.0260000   16.5690000  
C 18.7830000   19.8540000   15.7640000  
N 19.5560000   19.0370000   14.9590000  
O 17.9560000   21.7490000   16.7700000  
C 18.7180000   21.2540000   15.7940000  
O 19.2060000   22.0050000   14.9620000  
O 20.4200000   14.3290000   15.1030000  
O 18.8290000   14.1980000   17.3870000  
H 17.2040000   19.3040000   17.1390000  
H 17.5760000   20.9800000   17.2500000  
H 20.2660000   19.3260000   14.3640000  
H 20.7060000   14.6000000   14.1850000  
H 19.3360000   13.6050000   16.8590000  
H 20.7190000   16.6940000   14.0680000  
