76
100 
C  8.7840000   15.2520000   22.0680000  
C  8.2950000   15.5910000   23.4210000  
C  9.1410000   16.1480000   24.3120000  
C 10.5410000   16.3270000   24.1410000  
C 11.0510000   16.0710000   22.8150000  
C 10.2430000   15.5040000   21.8430000  
C  8.9220000   16.5250000   25.6320000  
C 10.1480000   17.0680000   26.1190000  
N 11.1570000   16.8990000   25.2020000  
O  9.2710000   17.4870000   28.2960000  
C 10.2740000   17.7220000   27.4400000  
O 11.2090000   18.3740000   27.7490000  
O 10.6870000   15.2090000   20.5430000  
O  8.0480000   14.8000000   21.2160000  
H  7.2330000   15.5280000   23.5450000  
H  7.8900000   16.5660000   26.0040000  
H  8.6640000   16.9510000   27.6930000  
H 11.5630000   15.6410000   20.5380000  
C 12.3740000   16.4780000   22.4420000  
C 13.3690000   15.5560000   22.1280000  
C 14.6000000   16.0160000   21.7010000  
C 15.0460000   17.3700000   21.6560000  
C 14.0530000   18.2180000   22.1000000  
C 12.7820000   17.7830000   22.3610000  
C 13.3600000   14.0950000   22.0970000  
C 14.6470000   13.7560000   21.6020000  
N 15.3170000   14.9390000   21.3140000  
O 14.3580000   11.3170000   21.8210000  
C 15.1200000   12.3450000   21.4150000  
O 16.1380000   12.0390000   20.8840000  
O 14.3140000   19.6150000   22.1160000  
O 11.8320000   18.7200000   22.5300000  
H 12.5050000   13.4900000   22.4550000  
H 13.4390000   11.5750000   22.0160000  
H 16.2580000   14.9180000   20.9960000  
H 15.2620000   19.7000000   21.8330000  
H 12.1470000   19.5710000   22.0830000  
C 16.4560000   17.7680000   21.3070000  
C 16.6760000   18.6930000   20.2990000  
C 17.9260000   19.1490000   19.9470000  
C 19.1510000   18.5890000   20.4440000  
C 18.9850000   17.6220000   21.4830000  
C 17.6510000   17.1850000   21.8680000  
C 15.7050000   19.4010000   19.4050000  
C 16.4600000   20.2060000   18.5420000  
N 17.8030000   20.0710000   18.9460000  
O 14.7010000   21.3480000   17.4550000  
C 16.0350000   21.1650000   17.5940000  
O 16.7950000   21.7860000   16.9360000  
O 19.9840000   16.8440000   22.0100000  
O 17.5490000   16.1500000   22.7550000  
H 14.6390000   19.2360000   19.3780000  
H 14.3620000   20.6870000   18.1080000  
H 18.6110000   20.6060000   18.6340000  
H 20.9480000   17.1690000   21.8240000  
H 18.4000000   15.9120000   23.1490000  
C 20.4430000   18.9930000   19.9220000  
C 21.4030000   19.5430000   20.7470000  
C 22.6340000   19.8860000   20.3360000  
C 23.0040000   19.7490000   18.9820000  
C 22.0640000   19.2850000   18.0750000  
C 20.8330000   18.7580000   18.6010000  
C 21.3490000   19.7490000   22.1760000  
C 22.5970000   20.2000000   22.5550000  
N 23.3840000   20.3490000   21.3840000  
O 22.0590000   20.3120000   24.8860000  
C 23.0060000   20.4250000   23.9250000  
O 24.0640000   20.9020000   24.2630000  
O 22.4100000   19.1280000   16.7640000  
O 19.9430000   18.1940000   17.6940000  
H 20.5660000   19.5590000   22.8580000  
H 21.2110000   20.0750000   24.4010000  
H 24.2390000   20.8670000   21.3100000  
H 21.8120000   18.5440000   16.3260000  
H 19.3630000   17.6380000   18.3230000  
H 24.0400000   19.9610000   18.7110000  
