76
100 
C 14.5030000   10.6590000   23.1550000  
C 15.3830000   10.1790000   24.2170000  
C 16.0090000   11.0700000   25.0090000  
C 15.9990000   12.4670000   24.8340000  
C 15.2900000   13.0300000   23.7970000  
C 14.5460000   12.1670000   23.0070000  
C 16.8770000   10.8580000   26.0710000  
C 17.3770000   12.1100000   26.3700000  
N 16.8500000   13.1020000   25.6260000  
O 18.6800000   11.2510000   28.1930000  
C 18.3310000   12.3530000   27.4660000  
O 18.8600000   13.4360000   27.6870000  
O 14.0000000   12.6490000   21.8830000  
O 13.9260000    9.9200000   22.3720000  
H 15.3810000    9.0710000   24.3530000  
H 17.1740000    9.8580000   26.4050000  
H 18.1490000   10.5850000   27.8060000  
H 14.2150000   13.5950000   21.8950000  
C 15.5320000   14.4350000   23.4530000  
C 16.2740000   14.6820000   22.2790000  
C 16.3610000   15.9160000   21.7760000  
C 15.8880000   17.1510000   22.3530000  
C 15.3070000   16.9090000   23.6580000  
C 15.0150000   15.5610000   24.1150000  
C 16.8740000   13.7030000   21.3020000  
C 17.1770000   14.4990000   20.1940000  
N 16.9330000   15.8160000   20.5160000  
O 18.3490000   12.8420000   19.0110000  
C 17.8080000   14.0790000   18.9600000  
O 17.9480000   14.7800000   17.9220000  
O 14.9300000   18.0220000   24.3860000  
O 14.4990000   15.3840000   25.3290000  
H 17.1390000   12.6850000   21.3960000  
H 18.0850000   12.4010000   19.8860000  
H 17.3110000   16.6270000   20.0430000  
H 15.4290000   18.7680000   23.9580000  
H 14.0140000   16.1730000   25.6360000  
C 15.9490000   18.4890000   21.7070000  
C 15.2610000   18.6200000   20.5340000  
C 15.2430000   19.8430000   19.9270000  
C 15.9940000   20.9610000   20.2710000  
C 16.7360000   20.9220000   21.4950000  
C 16.6680000   19.6590000   22.2580000  
C 14.5010000   17.7760000   19.6520000  
C 13.9700000   18.5310000   18.6620000  
N 14.3830000   19.8520000   18.8080000  
O 12.8800000   16.7450000   17.6680000  
C 13.1080000   18.0350000   17.6000000  
O 12.6940000   18.7090000   16.6920000  
O 17.5720000   21.9190000   21.8260000  
O 17.2920000   19.6200000   23.4430000  
H 14.2970000   16.7230000   19.8540000  
H 13.2780000   16.3700000   18.4850000  
H 14.2700000   20.5930000   18.2250000  
H 17.6620000   22.5090000   21.0020000  
H 17.7330000   20.4740000   23.6710000  
C 15.8920000   22.3010000   19.5660000  
C 15.6080000   23.5140000   20.2580000  
C 15.6110000   24.7140000   19.5970000  
C 15.9950000   24.7720000   18.2030000  
C 16.2670000   23.5730000   17.5330000  
C 16.2680000   22.3750000   18.2270000  
C 15.1640000   23.7430000   21.6350000  
C 15.1910000   25.1140000   21.7510000  
N 15.3930000   25.7360000   20.4940000  
O 14.6140000   25.2480000   24.1040000  
C 14.9010000   25.9340000   22.9890000  
O 14.8550000   27.1780000   22.9720000  
O 16.5410000   23.5240000   16.2160000  
O 16.8110000   21.3210000   17.5970000  
H 15.0290000   23.0800000   22.4750000  
H 14.8010000   24.3500000   23.8990000  
H 15.2260000   26.7280000   20.4180000  
H 16.4780000   22.6220000   15.9810000  
H 16.6470000   20.4950000   18.0840000  
H 15.9180000   25.6920000   17.5730000  
