76
100 
C 12.0870000   11.6490000   19.5990000  
C 10.8830000   11.5310000   20.4220000  
C 10.6990000   12.4780000   21.4240000  
C 11.4940000   13.5480000   21.6970000  
C 12.6050000   13.8050000   20.8590000  
C 12.9530000   12.8290000   19.9070000  
C  9.5780000   12.6410000   22.3330000  
C  9.8630000   13.7940000   23.0860000  
N 11.0400000   14.3280000   22.6240000  
O  8.0400000   13.3980000   24.6570000  
C  9.1610000   14.1450000   24.2980000  
O  9.5020000   15.1450000   24.9220000  
O 14.0520000   13.0520000   19.1480000  
O 12.3670000   10.8380000   18.6990000  
H 10.1570000   10.7210000   20.1690000  
H  8.8730000   11.8620000   22.3380000  
H  8.1430000   12.5710000   24.1200000  
H 14.5600000   13.7700000   19.6160000  
C 13.2940000   15.0640000   21.0430000  
C 14.0850000   15.3130000   22.1620000  
C 14.8900000   16.4070000   22.3330000  
C 14.9150000   17.4670000   21.4280000  
C 14.0520000   17.3320000   20.3200000  
C 13.1970000   16.1620000   20.1260000  
C 14.2460000   14.5680000   23.3580000  
C 15.0210000   15.3260000   24.2040000  
N 15.4830000   16.4750000   23.5820000  
O 14.7270000   13.8190000   26.0800000  
C 15.2700000   14.9720000   25.6260000  
O 15.8820000   15.7290000   26.3910000  
O 13.9390000   18.3490000   19.4120000  
O 12.4020000   15.9860000   19.0190000  
H 13.6840000   13.6830000   23.6990000  
H 14.3040000   13.5470000   25.2700000  
H 16.1970000   17.1290000   23.8900000  
H 14.5860000   19.0390000   19.6630000  
H 12.0760000   16.8510000   18.6860000  
C 15.8060000   18.6270000   21.6550000  
C 17.2050000   18.4200000   21.6920000  
C 18.0730000   19.5030000   21.7760000  
C 17.6710000   20.8050000   21.9850000  
C 16.2320000   21.0030000   22.0610000  
C 15.3220000   19.9850000   21.8210000  
C 18.1000000   17.2420000   21.5360000  
C 19.4220000   17.7630000   21.5370000  
N 19.4250000   19.1600000   21.8650000  
O 20.4060000   15.7690000   20.6630000  
C 20.6150000   16.9800000   21.2370000  
O 21.7770000   17.3400000   21.4350000  
O 15.6560000   22.2550000   22.1650000  
O 13.9880000   20.2880000   21.7730000  
H 17.7530000   16.3260000   21.1460000  
H 19.4420000   15.5850000   20.6180000  
H 20.1700000   19.7520000   22.1630000  
H 16.4120000   22.9140000   22.1120000  
H 13.9560000   21.1550000   22.1100000  
C 18.6240000   21.9160000   22.0850000  
C 19.5160000   22.2320000   21.0420000  
C 20.5100000   23.1460000   21.1520000  
C 20.6260000   23.9450000   22.3140000  
C 19.7310000   23.7270000   23.3780000  
C 18.6240000   22.7890000   23.2230000  
C 19.7460000   21.5090000   19.8510000  
C 20.8380000   22.1330000   19.2470000  
N 21.2840000   23.1360000   20.1020000  
O 20.4730000   21.0230000   17.2260000  
C 21.2830000   21.8520000   17.8720000  
O 22.3890000   22.1680000   17.4250000  
O 19.8880000   24.3760000   24.6410000  
O 17.6840000   22.7170000   24.2120000  
H 19.1770000   20.6980000   19.4690000  
H 19.7430000   20.9200000   17.7690000  
H 21.9530000   23.8390000   19.8800000  
H 19.2800000   23.8590000   25.1570000  
H 17.0600000   22.1180000   23.7990000  
H 21.4570000   24.6130000   22.3750000  
