76
100 
C 15.0180000   10.7870000   23.7190000  
C 15.8440000   10.2350000   24.8240000  
C 16.6740000   11.1300000   25.4680000  
C 16.7250000   12.5200000   25.1730000  
C 15.9310000   13.0470000   24.0700000  
C 15.1730000   12.1890000   23.3160000  
C 17.3130000   11.0330000   26.7060000  
C 17.8120000   12.3180000   26.9630000  
N 17.4720000   13.2320000   25.9870000  
O 18.9150000   11.6710000   29.0120000  
C 18.6950000   12.6690000   28.0880000  
O 19.2420000   13.7850000   28.1630000  
O 14.4470000   12.5960000   22.2220000  
O 14.3020000   10.0470000   23.0800000  
H 15.5810000    9.2890000   25.1720000  
H 17.5960000   10.1520000   27.2010000  
H 18.3420000   10.8820000   28.7790000  
H 14.5850000   13.5430000   21.9590000  
C 15.8730000   14.4670000   23.6340000  
C 16.6430000   14.9380000   22.5420000  
C 16.4990000   16.2260000   22.1360000  
C 15.6720000   17.1950000   22.7810000  
C 14.9980000   16.7700000   23.9660000  
C 15.1590000   15.4310000   24.3500000  
C 17.4230000   14.2300000   21.5540000  
C 17.8460000   15.1500000   20.6420000  
N 17.3040000   16.3580000   21.0670000  
O 18.8590000   13.7680000   19.1310000  
C 18.6300000   15.0910000   19.4080000  
O 19.1040000   16.0390000   18.7740000  
O 14.1710000   17.6460000   24.6770000  
O 14.4430000   15.0010000   25.4510000  
H 17.5460000   13.1580000   21.5350000  
H 18.1720000   13.2380000   19.5370000  
H 17.5270000   17.2680000   20.6460000  
H 14.4610000   18.5710000   24.4290000  
H 13.9590000   15.7540000   25.7590000  
C 15.4740000   18.5370000   22.1790000  
C 15.0660000   18.6690000   20.8600000  
C 15.1640000   19.9050000   20.2810000  
C 15.5450000   21.1210000   20.9050000  
C 15.7820000   21.0360000   22.2640000  
C 15.7510000   19.7570000   22.8980000  
C 14.8390000   17.7250000   19.7780000  
C 14.8460000   18.4470000   18.6350000  
N 15.0340000   19.7880000   18.8970000  
O 14.2320000   16.6940000   17.1800000  
C 14.7800000   17.9210000   17.2400000  
O 14.9990000   18.4970000   16.1850000  
O 16.1630000   22.1550000   23.0410000  
O 16.1460000   19.6390000   24.1450000  
H 14.7400000   16.6550000   19.8010000  
H 13.9730000   16.4280000   18.0820000  
H 15.1700000   20.4580000   18.1750000  
H 15.9990000   22.8160000   22.4230000  
H 16.4080000   20.4090000   24.5050000  
C 15.7570000   22.3710000   20.1370000  
C 14.7690000   23.1830000   19.4800000  
C 15.1590000   24.2730000   18.7300000  
C 16.5040000   24.6680000   18.6090000  
C 17.5080000   23.8700000   19.1660000  
C 17.1240000   22.6890000   19.8930000  
C 13.3160000   23.1100000   19.5060000  
C 12.9220000   24.1130000   18.5760000  
N 14.0660000   24.9010000   18.2010000  
O 10.5600000   23.4300000   18.5140000  
C 11.5140000   24.3270000   18.0490000  
O 11.1500000   25.3100000   17.4000000  
O 18.8030000   24.0980000   18.8990000  
O 18.1270000   22.0240000   20.4680000  
H 12.6570000   22.3700000   19.8490000  
H 11.0550000   22.6740000   18.9380000  
H 14.2120000   25.7610000   17.6500000  
H 19.3940000   23.4960000   19.4290000  
H 17.8080000   21.1470000   20.7190000  
H 16.7940000   25.5280000   18.1050000  
