76
100 
C  9.5590000   14.4900000   19.6800000  
C  8.7820000   13.9380000   20.8450000  
C  9.3080000   14.2090000   22.0560000  
C 10.5530000   14.7990000   22.2760000  
C 11.3480000   15.2530000   21.1670000  
C 10.8100000   15.2350000   19.9050000  
C  8.8900000   13.8720000   23.3480000  
C  9.9230000   14.2310000   24.1930000  
N 10.8600000   14.9680000   23.5440000  
O  8.9800000   13.2950000   26.2540000  
C  9.9660000   14.0670000   25.6880000  
O 10.7870000   14.5120000   26.4540000  
O 11.4180000   15.7370000   18.7910000  
O  9.0780000   14.4200000   18.6180000  
H  7.7870000   13.5320000   20.7030000  
H  8.0760000   13.2490000   23.6560000  
H  8.5850000   12.8740000   25.4770000  
H 12.1430000   16.2180000   19.1570000  
C 12.6090000   15.9270000   21.5190000  
C 13.8020000   15.3070000   21.0880000  
C 15.0600000   15.8180000   21.3540000  
C 15.1840000   17.1620000   21.8030000  
C 13.9630000   17.8280000   22.1840000  
C 12.7160000   17.2630000   21.8970000  
C 14.0300000   14.1550000   20.3170000  
C 15.4020000   14.1770000   19.8990000  
N 16.0110000   15.2480000   20.4760000  
O 15.2680000   12.1920000   18.4870000  
C 16.0210000   13.2130000   18.9780000  
O 17.2170000   13.3720000   18.6170000  
O 14.0510000   19.1100000   22.5950000  
O 11.5660000   17.9690000   22.2120000  
H 13.2660000   13.4650000   20.0160000  
H 14.3570000   12.2370000   18.9350000  
H 16.9740000   15.5040000   20.3970000  
H 14.9000000   19.4570000   22.3200000  
H 11.8390000   18.8600000   22.5790000  
C 16.5040000   17.8960000   21.9080000  
C 17.1040000   18.5890000   20.8550000  
C 18.3470000   19.0900000   21.0250000  
C 19.0220000   19.1670000   22.3330000  
C 18.3190000   18.6380000   23.4260000  
C 17.1040000   17.9950000   23.1760000  
C 16.7850000   18.7630000   19.4850000  
C 17.9180000   19.3450000   18.8980000  
N 18.8780000   19.5310000   19.8950000  
O 16.8340000   19.1060000   16.7210000  
C 18.0250000   19.5120000   17.3850000  
O 18.9390000   20.0240000   16.7560000  
O 18.7820000   18.8550000   24.7230000  
O 16.4420000   17.5740000   24.2290000  
H 15.9130000   18.3790000   18.9490000  
H 16.2900000   18.8280000   17.4800000  
H 19.8870000   19.7120000   19.7070000  
H 19.7600000   19.1290000   24.6230000  
H 17.0360000   17.6830000   25.0060000  
C 20.3250000   19.7360000   22.5720000  
C 20.4800000   21.0480000   23.0020000  
C 21.6540000   21.6790000   23.0100000  
C 22.8570000   21.0440000   22.8340000  
C 22.7970000   19.7280000   22.3360000  
C 21.5180000   19.1270000   22.0610000  
C 19.5100000   22.0560000   23.3460000  
C 20.1410000   23.2800000   23.4420000  
N 21.4910000   23.0090000   23.2440000  
O 18.3040000   24.4070000   24.3430000  
C 19.5460000   24.5430000   23.8420000  
O 20.0020000   25.6640000   23.7530000  
O 23.8760000   19.0680000   21.9650000  
O 21.4220000   17.8210000   21.5320000  
H 18.4640000   21.8980000   23.4290000  
H 18.0470000   23.4980000   24.0520000  
H 22.2360000   23.7240000   23.1160000  
H 24.6850000   19.5430000   22.0040000  
H 22.3160000   17.4940000   21.5880000  
H 23.7980000   21.6130000   22.8140000  
