76
100 
C  9.8200000   17.1740000   25.8760000  
C  9.2480000   15.8420000   25.8970000  
C  9.8350000   14.8460000   25.1560000  
C 11.0440000   15.0160000   24.5180000  
C 11.6910000   16.3150000   24.4560000  
C 11.1000000   17.3370000   25.1700000  
C  9.3310000   13.5480000   24.9300000  
C 10.3760000   12.9570000   24.1950000  
N 11.3750000   13.8950000   23.8320000  
O  9.3730000   10.8280000   24.3590000  
C 10.3030000   11.5840000   23.7350000  
O 11.0690000   11.1100000   22.8680000  
O 11.6470000   18.5660000   25.4140000  
O  9.2410000   18.0520000   26.5110000  
H  8.3710000   15.6170000   26.4050000  
H  8.3660000   13.1270000   25.3190000  
H  8.9650000   11.4460000   25.0090000  
H 12.4350000   18.5240000   24.9430000  
C 12.9540000   16.5550000   23.7990000  
C 12.9700000   16.7890000   22.4330000  
C 14.1610000   17.0650000   21.7110000  
C 15.4270000   17.0460000   22.2930000  
C 15.3960000   16.8850000   23.7140000  
C 14.2220000   16.5980000   24.4440000  
C 11.9530000   16.6250000   21.4450000  
C 12.6090000   16.6760000   20.2010000  
N 13.9580000   16.9300000   20.3910000  
O 10.6930000   16.3040000   18.8350000  
C 12.0270000   16.5950000   18.8230000  
O 12.6490000   16.8720000   17.8240000  
O 16.5750000   17.0220000   24.5200000  
O 14.2850000   16.5060000   25.8010000  
H 10.8930000   16.6150000   21.5450000  
H 10.3980000   16.1090000   19.7410000  
H 14.6800000   17.0420000   19.6060000  
H 17.1700000   17.5120000   23.8340000  
H 15.0820000   16.0120000   26.1070000  
C 16.7030000   17.4410000   21.6490000  
C 16.8580000   18.7020000   21.0320000  
C 18.0820000   19.0150000   20.4320000  
C 19.2100000   18.1980000   20.3830000  
C 19.0960000   16.9960000   21.1180000  
C 17.8540000   16.6280000   21.7560000  
C 16.0540000   19.8340000   20.8880000  
C 16.7480000   20.8050000   20.1630000  
N 18.0300000   20.2380000   19.8260000  
O 15.0040000   22.3460000   20.1000000  
C 16.1970000   22.0710000   19.6590000  
O 16.8250000   22.8470000   18.9280000  
O 20.0730000   16.0390000   21.1530000  
O 17.8030000   15.4700000   22.4810000  
H 15.0290000   20.0160000   21.2110000  
H 14.7080000   21.7150000   20.7670000  
H 18.7410000   20.6740000   19.2860000  
H 20.7890000   16.2470000   20.5600000  
H 18.6660000   14.9820000   22.5200000  
C 20.4270000   18.5390000   19.5750000  
C 21.3060000   19.6250000   19.9670000  
C 22.4460000   19.9200000   19.2260000  
C 22.8770000   19.2500000   18.0820000  
C 22.0350000   18.1860000   17.6610000  
C 20.8710000   17.7870000   18.4080000  
C 21.3280000   20.6050000   21.0820000  
C 22.2480000   21.5940000   20.7420000  
N 22.9720000   21.1130000   19.6510000  
O 21.6820000   23.0620000   22.5350000  
C 22.4700000   22.8200000   21.5090000  
O 23.4170000   23.5910000   21.3060000  
O 22.4050000   17.5090000   16.5030000  
O 20.0980000   16.7460000   17.9080000  
H 20.5250000   20.6780000   21.7900000  
H 21.0610000   22.3530000   22.6650000  
H 23.7760000   21.6230000   19.2730000  
H 21.7740000   16.8620000   16.4070000  
H 19.2090000   17.0160000   18.1370000  
H 23.6930000   19.5860000   17.5250000  
