76
100 
C 17.8020000   17.3480000   28.7510000  
C 16.8460000   16.5570000   29.6560000  
C 15.6100000   16.1910000   29.1430000  
C 15.2500000   16.3260000   27.7820000  
C 16.1280000   17.0240000   26.8820000  
C 17.3420000   17.5090000   27.3380000  
C 14.5070000   15.5170000   29.7860000  
C 13.5950000   15.3510000   28.7310000  
N 14.0510000   15.8120000   27.5510000  
O 11.8540000   14.7590000   30.2570000  
C 12.1700000   14.9030000   28.9630000  
O 11.3450000   14.6300000   28.1200000  
O 18.2140000   18.1440000   26.5110000  
O 18.9030000   17.7600000   29.1350000  
H 17.2300000   16.4540000   30.6930000  
H 14.4370000   15.3770000   30.8750000  
H 12.7320000   15.0220000   30.7760000  
H 17.8100000   18.2060000   25.6160000  
C 15.7800000   17.0110000   25.4630000  
C 15.6520000   18.2340000   24.7520000  
C 15.5180000   18.2540000   23.3500000  
C 15.6460000   17.1160000   22.5140000  
C 15.8220000   15.8890000   23.2270000  
C 15.8250000   15.8460000   24.6790000  
C 15.5840000   19.6000000   25.1670000  
C 15.4180000   20.3530000   24.0230000  
N 15.4300000   19.5200000   22.8950000  
O 14.5960000   22.3140000   24.9620000  
C 15.0230000   21.7470000   23.8760000  
O 15.2080000   22.4410000   22.8770000  
O 15.9910000   14.7260000   22.5900000  
O 15.9460000   14.6400000   25.3570000  
H 15.6770000   19.9310000   26.1460000  
H 14.4620000   21.6770000   25.6840000  
H 15.2300000   19.8020000   21.9510000  
H 15.4850000   14.9840000   21.7730000  
H 15.6990000   13.9590000   24.7300000  
C 15.5250000   17.2210000   21.0200000  
C 16.3940000   18.1180000   20.2460000  
C 16.2900000   18.1620000   18.8600000  
C 15.2680000   17.5470000   18.1330000  
C 14.3280000   16.7230000   18.9320000  
C 14.5210000   16.4700000   20.2880000  
C 17.3790000   19.1230000   20.6010000  
C 17.7890000   19.6660000   19.3870000  
N 17.1870000   19.0490000   18.3250000  
O 19.2110000   21.3800000   20.3450000  
C 18.8150000   20.7670000   19.2010000  
O 19.2170000   21.0650000   18.1110000  
O 13.3300000   15.9890000   18.2730000  
O 13.7490000   15.5980000   20.9630000  
H 17.7550000   19.3110000   21.5770000  
H 18.9530000   20.8070000   20.9870000  
H 17.4080000   19.3820000   17.3760000  
H 13.0800000   16.6090000   17.4950000  
H 13.1130000   15.0950000   20.3670000  
C 15.0570000   17.6840000   16.6720000  
C 16.1620000   17.3780000   15.7580000  
C 15.9880000   17.6210000   14.4010000  
C 14.8000000   18.1600000   13.8350000  
C 13.7970000   18.6270000   14.7060000  
C 13.9260000   18.4310000   16.1030000  
C 17.4890000   16.9580000   16.0490000  
C 18.0970000   16.9170000   14.8030000  
N 17.2050000   17.3420000   13.8070000  
O 20.1120000   15.8000000   15.4760000  
C 19.4350000   16.4220000   14.4760000  
O 19.8480000   16.4260000   13.3680000  
O 12.6880000   19.2150000   14.1300000  
O 12.9760000   18.9030000   16.9920000  
H 18.0040000   16.6610000   17.0080000  
H 19.4170000   15.8100000   16.1790000  
H 17.4280000   17.5800000   12.8870000  
H 12.6180000   19.2360000   13.2050000  
H 12.3650000   19.4420000   16.3990000  
H 14.7450000   18.3640000   12.7950000  
