76
100 
C 12.6600000   17.8470000   28.4810000  
C 11.1970000   17.5800000   28.2800000  
C 10.8250000   17.1200000   27.0550000  
C 11.6500000   16.9420000   25.9720000  
C 13.0110000   17.1160000   26.1290000  
C 13.5470000   17.5740000   27.3190000  
C  9.5730000   16.9540000   26.4720000  
C  9.7400000   16.6050000   25.1320000  
N 11.1120000   16.6250000   24.7780000  
O  7.4680000   16.0800000   24.8180000  
C  8.6820000   16.2300000   24.2220000  
O  8.8500000   15.8980000   23.0330000  
O 14.8540000   18.0190000   27.4120000  
O 13.0930000   18.1930000   29.5460000  
H 10.5180000   17.8870000   29.0060000  
H  8.5210000   17.0800000   26.9050000  
H  7.5840000   16.3100000   25.7760000  
H 15.2280000   17.9130000   26.5200000  
C 13.8320000   17.1170000   24.9150000  
C 13.9210000   18.1850000   24.0770000  
C 14.6820000   18.2070000   22.9470000  
C 15.4100000   17.0960000   22.4910000  
C 15.4760000   15.9900000   23.4260000  
C 14.7010000   16.0020000   24.6350000  
C 13.1170000   19.3850000   23.9800000  
C 13.5000000   20.0140000   22.7960000  
N 14.6210000   19.3780000   22.2740000  
O 11.7520000   21.6310000   22.8690000  
C 12.8760000   21.2500000   22.2390000  
O 13.2170000   21.7880000   21.1760000  
O 16.0960000   14.8240000   22.9660000  
O 14.8430000   14.9880000   25.5050000  
H 12.4110000   19.7200000   24.6960000  
H 11.7070000   20.9610000   23.5840000  
H 15.0330000   19.5650000   21.3690000  
H 16.6060000   15.0010000   22.1610000  
H 15.6800000   14.5200000   25.3170000  
C 16.3290000   17.2570000   21.2900000  
C 17.6000000   17.8710000   21.3920000  
C 18.3990000   18.1410000   20.3330000  
C 18.0920000   17.6570000   19.0200000  
C 16.7970000   17.0300000   18.8500000  
C 16.0090000   16.8340000   19.9420000  
C 18.3160000   18.5710000   22.4920000  
C 19.5000000   19.1530000   21.9860000  
N 19.5070000   18.9870000   20.6410000  
O 20.3010000   20.0480000   24.1080000  
C 20.4800000   19.9350000   22.7610000  
O 21.3750000   20.5810000   22.2240000  
O 16.3950000   16.5310000   17.6200000  
O 14.8340000   16.2290000   19.7980000  
H 18.0080000   18.5780000   23.5140000  
H 19.4380000   19.6090000   24.1160000  
H 20.1370000   19.5230000   20.0620000  
H 16.7880000   17.0080000   16.8600000  
H 14.8380000   16.0690000   18.9100000  
C 18.9110000   18.1180000   17.8580000  
C 19.6030000   17.1110000   17.1560000  
C 20.3230000   17.3930000   16.0390000  
C 20.4340000   18.7110000   15.5650000  
C 19.7140000   19.7010000   16.2160000  
C 19.0110000   19.4470000   17.4080000  
C 19.7250000   15.6830000   17.2970000  
C 20.3770000   15.1780000   16.1660000  
N 20.8420000   16.2520000   15.4450000  
O 19.9470000   12.9240000   16.6390000  
C 20.4680000   13.7500000   15.7900000  
O 20.9870000   13.4080000   14.7200000  
O 19.8070000   20.9660000   15.6910000  
O 18.4920000   20.5120000   18.1450000  
H 19.2260000   15.0380000   18.0240000  
H 19.7240000   13.4560000   17.4020000  
H 21.4460000   16.2420000   14.6270000  
H 19.5880000   21.6980000   16.3060000  
H 18.3170000   20.2550000   19.0650000  
H 20.9520000   18.9110000   14.6530000  
