76
100 
C 13.4830000   17.3990000   28.7100000  
C 12.0080000   17.0130000   28.7090000  
C 11.3180000   16.7860000   27.4910000  
C 11.9760000   16.8550000   26.2410000  
C 13.3470000   17.1510000   26.1430000  
C 14.0400000   17.4840000   27.3360000  
C  9.9970000   16.6010000   27.1830000  
C  9.8970000   16.5100000   25.8090000  
N 11.1290000   16.6450000   25.2470000  
O  7.4820000   16.2040000   25.5660000  
C  8.6870000   16.1650000   24.9830000  
O  8.7830000   15.9260000   23.7750000  
O 15.3340000   17.8880000   27.3340000  
O 14.0740000   17.6660000   29.7230000  
H 11.5450000   17.2270000   29.6520000  
H  9.2050000   16.4830000   27.9580000  
H  7.5450000   16.3720000   26.4760000  
H 15.4960000   17.8840000   26.3330000  
C 13.9900000   17.3340000   24.8450000  
C 14.4590000   18.6250000   24.4370000  
C 15.0630000   18.8200000   23.2880000  
C 15.5480000   17.8320000   22.4480000  
C 15.1670000   16.5420000   22.8230000  
C 14.3670000   16.2970000   24.0130000  
C 14.3160000   19.9220000   25.0420000  
C 14.8920000   20.8270000   24.1530000  
N 15.4480000   20.1360000   23.1020000  
O 14.4670000   22.8580000   25.4230000  
C 15.0170000   22.3210000   24.3300000  
O 15.7120000   23.0550000   23.6750000  
O 15.4340000   15.5520000   21.8980000  
O 14.1870000   15.0150000   24.5070000  
H 14.0350000   20.1030000   26.0150000  
H 13.9490000   22.1540000   25.8180000  
H 16.0210000   20.4890000   22.3710000  
H 16.2800000   15.7220000   21.4090000  
H 14.4940000   14.4000000   23.8180000  
C 16.4010000   18.2020000   21.2290000  
C 17.6520000   17.6640000   21.1680000  
C 18.4120000   17.7350000   20.0500000  
C 18.0820000   18.4270000   18.8360000  
C 16.8800000   19.1990000   18.9700000  
C 16.0620000   19.0940000   20.1550000  
C 18.3290000   16.7260000   22.0360000  
C 19.4090000   16.2630000   21.3690000  
N 19.4670000   16.8740000   20.0860000  
O 20.0740000   14.5570000   23.0010000  
C 20.3410000   15.2200000   21.8110000  
O 21.3110000   14.9650000   21.1380000  
O 16.4690000   20.0930000   17.9950000  
O 14.8340000   19.7650000   20.1410000  
H 18.0310000   16.4010000   22.9970000  
H 19.2470000   15.0520000   23.2720000  
H 20.2790000   16.8780000   19.4190000  
H 17.3510000   20.3600000   17.4810000  
H 14.5910000   20.0520000   19.2430000  
C 18.9640000   18.3070000   17.5950000  
C 18.4620000   17.7480000   16.3870000  
C 19.3340000   17.4570000   15.3560000  
C 20.7380000   17.5320000   15.3830000  
C 21.2700000   18.1090000   16.5870000  
C 20.4030000   18.4700000   17.6580000  
C 17.1350000   17.2770000   15.9420000  
C 17.2750000   16.6560000   14.7080000  
N 18.6440000   16.7100000   14.3990000  
O 14.9990000   16.2620000   14.3700000  
C 16.2130000   15.9220000   13.9610000  
O 16.4730000   15.0700000   13.1510000  
O 22.6160000   18.2260000   16.7400000  
O 20.8870000   18.9880000   18.8090000  
H 16.1910000   17.3300000   16.5560000  
H 15.1990000   17.0190000   14.9080000  
H 19.0850000   16.1880000   13.6300000  
H 22.6400000   18.8410000   17.4460000  
H 20.1730000   19.1610000   19.5030000  
H 21.3730000   17.0990000   14.5910000  
