76
100 
C 16.1110000   16.6260000   29.2500000  
C 17.0730000   15.5170000   29.5360000  
C 17.7300000   14.9390000   28.4620000  
C 17.3800000   15.3140000   27.1640000  
C 16.5150000   16.4700000   26.8460000  
C 15.9500000   17.1220000   27.8940000  
C 18.5550000   13.8140000   28.3420000  
C 18.6290000   13.5200000   26.9830000  
N 17.9000000   14.4820000   26.2610000  
O 20.2070000   11.8360000   27.4140000  
C 19.4470000   12.4450000   26.4620000  
O 19.5160000   12.1600000   25.3090000  
O 15.0280000   18.1030000   27.8200000  
O 15.4790000   17.1250000   30.1470000  
H 17.2410000   15.2670000   30.6410000  
H 18.8590000   13.1610000   29.1800000  
H 19.9160000   12.3290000   28.1790000  
H 15.0790000   18.4740000   26.9830000  
C 16.3330000   16.8600000   25.3770000  
C 15.0340000   16.8890000   24.8630000  
C 14.7910000   17.1930000   23.5480000  
C 15.8030000   17.5060000   22.5440000  
C 17.1550000   17.6040000   23.1010000  
C 17.3470000   17.2540000   24.4760000  
C 13.7890000   16.5180000   25.4840000  
C 12.8330000   16.6360000   24.4820000  
N 13.4450000   17.0640000   23.2970000  
O 11.0460000   16.0430000   25.8660000  
C 11.4070000   16.5410000   24.6960000  
O 10.5990000   16.7680000   23.7980000  
O 18.1730000   17.9830000   22.2860000  
O 18.6560000   17.1040000   24.8230000  
H 13.6270000   16.0980000   26.4600000  
H 11.7940000   15.7070000   26.4000000  
H 12.9840000   17.5950000   22.6040000  
H 17.6530000   18.2240000   21.4690000  
H 19.1270000   16.9710000   24.0050000  
C 15.5040000   17.7530000   21.1080000  
C 15.8830000   18.9490000   20.5000000  
C 15.5040000   19.2260000   19.2350000  
C 14.7310000   18.4620000   18.3810000  
C 14.2920000   17.2570000   19.0170000  
C 14.6660000   16.9550000   20.3830000  
C 16.4860000   20.2440000   20.9280000  
C 16.6040000   21.0500000   19.8620000  
N 15.9500000   20.4440000   18.8050000  
O 17.9770000   22.7620000   20.9790000  
C 17.3180000   22.3940000   19.8150000  
O 17.3710000   23.0240000   18.7980000  
O 13.6530000   16.3970000   18.2020000  
O 14.3460000   15.7050000   20.8310000  
H 16.8390000   20.4190000   21.9510000  
H 17.9010000   21.9230000   21.5630000  
H 15.9490000   20.8330000   17.8660000  
H 13.2630000   16.9240000   17.4500000  
H 14.3190000   15.1120000   20.0500000  
C 14.3690000   18.8200000   16.9400000  
C 15.3560000   19.0960000   15.9770000  
C 15.0420000   19.5790000   14.7810000  
C 13.7400000   19.9010000   14.4710000  
C 12.7290000   19.7230000   15.4100000  
C 13.0400000   19.1500000   16.6640000  
C 16.7880000   18.8850000   15.9320000  
C 17.2680000   19.3580000   14.7140000  
N 16.1780000   19.7030000   13.9930000  
O 19.4750000   18.6820000   15.1000000  
C 18.5910000   19.1500000   14.2380000  
O 18.9970000   19.4080000   13.0750000  
O 11.4560000   20.0320000   15.0340000  
O 12.1260000   19.1490000   17.7150000  
H 17.3000000   18.1370000   16.5230000  
H 19.0340000   18.5750000   15.9510000  
H 16.2530000   19.9680000   13.0320000  
H 10.7860000   19.9580000   15.7310000  
H 12.6220000   18.9240000   18.5410000  
H 13.4960000   20.3180000   13.5270000  
