76
100 
C 15.4830000   19.9560000   28.7420000  
C 15.1050000   18.8040000   29.5260000  
C 14.9580000   17.5650000   29.0090000  
C 15.0900000   17.3120000   27.6200000  
C 15.4350000   18.3980000   26.7490000  
C 15.5660000   19.6980000   27.2970000  
C 14.7120000   16.3220000   29.5720000  
C 14.5620000   15.4150000   28.4890000  
N 14.9330000   16.0430000   27.2850000  
O 13.9020000   13.5480000   29.6950000  
C 14.2290000   14.0530000   28.4350000  
O 14.2600000   13.4050000   27.4310000  
O 15.7740000   20.8130000   26.6420000  
O 15.5680000   21.0800000   29.2120000  
H 14.9530000   19.0820000   30.5550000  
H 14.6060000   16.2020000   30.6320000  
H 14.0400000   14.2610000   30.2730000  
H 15.7660000   20.6150000   25.6930000  
C 15.5980000   18.0830000   25.3240000  
C 14.5250000   18.2510000   24.4120000  
C 14.6250000   17.7820000   23.1140000  
C 15.7860000   17.2150000   22.5860000  
C 16.8930000   17.0040000   23.4510000  
C 16.7910000   17.3980000   24.7830000  
C 13.4110000   19.1130000   24.4920000  
C 12.7990000   19.0490000   23.2210000  
N 13.5550000   18.2730000   22.3530000  
O 10.8080000   20.1990000   23.8180000  
C 11.5830000   19.7900000   22.8500000  
O 11.3780000   19.9870000   21.6840000  
O 18.0260000   16.3660000   23.0120000  
O 17.8120000   17.1030000   25.6870000  
H 13.0840000   19.5250000   25.4190000  
H 11.2640000   19.7100000   24.5200000  
H 13.4280000   18.2510000   21.3440000  
H 17.8260000   16.0240000   22.1350000  
H 18.5320000   16.9860000   25.0560000  
C 15.8780000   16.9610000   21.0970000  
C 15.8830000   18.0820000   20.2100000  
C 16.0390000   17.9000000   18.8720000  
C 16.0990000   16.5930000   18.2370000  
C 16.1240000   15.4680000   19.0990000  
C 16.1040000   15.6360000   20.4940000  
C 15.7210000   19.5190000   20.3980000  
C 15.7820000   20.0610000   19.1420000  
N 16.0600000   19.0840000   18.2030000  
O 15.1650000   22.2310000   19.7910000  
C 15.6880000   21.4970000   18.7980000  
O 16.0650000   21.9520000   17.7390000  
O 16.2810000   14.2430000   18.6220000  
O 16.2580000   14.5080000   21.2610000  
H 15.5720000   19.9870000   21.3410000  
H 15.3510000   21.7520000   20.5520000  
H 15.9960000   19.1360000   17.2590000  
H 16.2780000   14.3580000   17.6520000  
H 16.5150000   13.7820000   20.7020000  
C 16.3240000   16.5380000   16.8000000  
C 17.5510000   17.0520000   16.2780000  
C 17.9160000   16.9140000   14.9480000  
C 16.9360000   16.3860000   14.0780000  
C 15.7060000   15.8760000   14.5140000  
C 15.3650000   15.9600000   15.9050000  
C 18.7780000   17.3400000   17.0040000  
C 19.7160000   17.6450000   16.0430000  
N 19.1750000   17.3600000   14.7630000  
O 21.4600000   18.4460000   17.4420000  
C 21.1040000   18.2100000   16.1810000  
O 21.8270000   18.5060000   15.2330000  
O 14.8330000   15.3810000   13.5610000  
O 14.1430000   15.5280000   16.4460000  
H 18.9070000   17.5330000   18.0830000  
H 20.7180000   18.0600000   18.0380000  
H 19.5740000   17.6780000   13.8840000  
H 15.2280000   15.3620000   12.6890000  
H 13.5410000   15.6480000   15.7010000  
H 17.1860000   16.2930000   13.0110000  
