76
100 
C 11.4560000   14.3910000   26.7770000  
C 10.1510000   15.0730000   26.6810000  
C  9.9610000   16.1370000   25.8290000  
C 10.9040000   16.5110000   24.8770000  
C 12.1190000   15.8130000   24.8530000  
C 12.4280000   14.8050000   25.7210000  
C  8.9140000   16.9980000   25.5560000  
C  9.2750000   17.8650000   24.5390000  
N 10.6400000   17.5660000   24.1850000  
O  7.0440000   18.6300000   24.0570000  
C  8.3740000   18.7420000   23.7630000  
O  8.7290000   19.3350000   22.7880000  
O 13.6780000   14.2690000   25.7630000  
O 11.5680000   13.4020000   27.4780000  
H  9.4070000   14.7360000   27.4220000  
H  7.9310000   16.9850000   26.0430000  
H  7.2200000   18.4110000   24.9840000  
H 14.1380000   14.6910000   25.0040000  
C 13.0280000   16.1180000   23.7870000  
C 13.9750000   17.1900000   24.0390000  
C 14.8970000   17.6280000   23.0890000  
C 14.9450000   17.0370000   21.8460000  
C 14.0470000   15.9520000   21.6200000  
C 13.1550000   15.4780000   22.5970000  
C 14.0830000   18.1150000   25.1310000  
C 15.0700000   19.0570000   24.7770000  
N 15.5560000   18.8250000   23.4650000  
O 14.5500000   20.4460000   26.6440000  
C 15.4210000   20.1830000   25.6120000  
O 16.4220000   20.8750000   25.4230000  
O 14.1610000   15.2800000   20.4010000  
O 12.3660000   14.3770000   22.3840000  
H 13.6100000   18.1010000   26.0880000  
H 13.9510000   19.7340000   26.6840000  
H 16.1620000   19.4230000   22.8940000  
H 14.5490000   15.8630000   19.7520000  
H 12.5970000   13.9140000   21.5520000  
C 15.9320000   17.5260000   20.8350000  
C 17.3120000   17.6140000   21.1660000  
C 18.1270000   18.1760000   20.2150000  
C 17.8250000   18.7160000   18.9670000  
C 16.4310000   18.6940000   18.6830000  
C 15.5210000   18.0540000   19.5380000  
C 18.1730000   17.3480000   22.2850000  
C 19.4450000   17.7560000   21.9740000  
N 19.4300000   18.3580000   20.6800000  
O 20.3340000   17.0900000   24.0380000  
C 20.5980000   17.7110000   22.8820000  
O 21.6860000   18.1310000   22.5820000  
O 16.0200000   19.3250000   17.4970000  
O 14.2050000   18.0090000   19.1200000  
H 17.8080000   16.8810000   23.2170000  
H 19.4300000   16.7670000   24.0800000  
H 20.3000000   18.6290000   20.1720000  
H 16.6190000   20.0600000   17.2920000  
H 14.2110000   18.5980000   18.3900000  
C 18.8740000   19.3090000   18.0190000  
C 19.8420000   18.4550000   17.4700000  
C 20.9590000   18.8950000   16.8420000  
C 21.0890000   20.2170000   16.4960000  
C 20.0970000   21.1020000   16.8400000  
C 18.9760000   20.6480000   17.6020000  
C 20.0740000   17.0530000   17.6520000  
C 21.3700000   16.7110000   17.2580000  
N 21.8950000   17.8530000   16.6940000  
O 21.4640000   14.6310000   18.4340000  
C 22.1420000   15.4600000   17.5720000  
O 23.2420000   15.1810000   17.1820000  
O 20.1570000   22.4410000   16.5160000  
O 18.0580000   21.5290000   18.0020000  
H 19.2070000   16.3550000   17.8920000  
H 20.5740000   15.0300000   18.5170000  
H 22.7880000   17.8370000   16.2720000  
H 21.0900000   22.6900000   16.8740000  
H 18.1980000   22.3530000   17.5130000  
H 21.9210000   20.6010000   16.0340000  
