76
100 
C  9.8330000   17.1050000   26.0160000  
C 10.1320000   17.7320000   27.2960000  
C 11.3020000   18.3660000   27.5190000  
C 12.2710000   18.5820000   26.4700000  
C 11.9720000   18.0940000   25.1090000  
C 10.8170000   17.3770000   24.9310000  
C 11.8330000   18.9650000   28.6900000  
C 13.0360000   19.5520000   28.2180000  
N 13.2800000   19.3290000   26.8710000  
O 13.8100000   20.1220000   30.4230000  
C 14.0440000   20.2150000   29.0920000  
O 15.0450000   20.7900000   28.7230000  
O 10.4770000   16.8890000   23.7200000  
O  8.8730000   16.3470000   25.7930000  
H  9.3420000   17.6800000   27.9460000  
H 11.3960000   18.9670000   29.7170000  
H 12.9380000   19.7510000   30.5180000  
H 11.2910000   16.4460000   23.4040000  
C 13.0840000   18.1340000   24.0710000  
C 13.8000000   16.9890000   23.8380000  
C 14.8910000   17.0150000   23.0180000  
C 15.3470000   18.1930000   22.4020000  
C 14.6260000   19.3600000   22.5510000  
C 13.5170000   19.3450000   23.4270000  
C 13.7590000   15.7030000   24.3680000  
C 14.7290000   14.9520000   23.7080000  
N 15.5080000   15.8310000   22.9710000  
O 14.4360000   12.8290000   24.6940000  
C 15.2300000   13.6190000   23.9430000  
O 16.2650000   13.1520000   23.4710000  
O 15.0300000   20.4880000   21.9050000  
O 12.7930000   20.4530000   23.5620000  
H 13.0410000   15.3620000   25.1910000  
H 13.6310000   13.2840000   24.5530000  
H 16.3250000   15.6770000   22.3150000  
H 15.7360000   20.1920000   21.3130000  
H 13.2770000   21.2530000   23.3600000  
C 16.4990000   18.0990000   21.5110000  
C 16.3510000   17.3240000   20.3230000  
C 17.4190000   17.1310000   19.5560000  
C 18.6960000   17.7130000   19.7430000  
C 18.8560000   18.6010000   20.8420000  
C 17.7740000   18.7190000   21.7870000  
C 15.2480000   16.6850000   19.6550000  
C 15.7650000   16.1170000   18.4910000  
N 17.1190000   16.4550000   18.4130000  
O 13.7420000   15.0720000   17.7140000  
C 15.0340000   15.3160000   17.5280000  
O 15.5780000   14.9510000   16.4660000  
O 20.1150000   19.2070000   21.0960000  
O 18.0080000   19.4150000   22.8820000  
H 14.2290000   16.8340000   19.9340000  
H 13.5270000   15.2600000   18.5800000  
H 17.7190000   16.1090000   17.7110000  
H 20.6110000   18.8110000   20.3760000  
H 18.7770000   20.0260000   22.7190000  
C 19.7910000   17.4910000   18.7060000  
C 19.6510000   18.0450000   17.4120000  
C 20.5830000   17.9770000   16.4570000  
C 21.7540000   17.3190000   16.6320000  
C 21.9860000   16.7350000   17.8950000  
C 21.0230000   16.8550000   18.9740000  
C 18.5010000   18.7090000   16.8400000  
C 18.8540000   18.9840000   15.5180000  
N 20.1230000   18.5390000   15.2900000  
O 16.8330000   20.2090000   14.7590000  
C 18.0650000   19.6590000   14.4510000  
O 18.5240000   19.8070000   13.3110000  
O 23.2320000   16.1830000   18.0730000  
O 21.2290000   16.3370000   20.2280000  
H 17.4480000   18.8840000   17.1650000  
H 16.6970000   20.0820000   15.7030000  
H 20.5410000   18.4850000   14.3620000  
H 23.6330000   16.0870000   17.2490000  
H 21.9080000   15.7060000   20.0990000  
H 22.5580000   17.3220000   15.8500000  
