76
100 
C 14.0950000   17.4080000   29.0930000  
C 15.2390000   16.7670000   29.7160000  
C 16.3680000   16.5200000   28.9920000  
C 16.4450000   16.6590000   27.5700000  
C 15.2490000   17.0110000   26.8340000  
C 14.1480000   17.4890000   27.5920000  
C 17.7200000   16.3920000   29.4150000  
C 18.4970000   16.3410000   28.2510000  
N 17.6920000   16.5830000   27.1700000  
O 20.7350000   16.0730000   29.2010000  
C 19.9960000   16.1970000   28.0900000  
O 20.5810000   16.2730000   27.0430000  
O 13.0460000   18.0020000   27.0570000  
O 13.1900000   17.8410000   29.7570000  
H 15.1570000   16.7220000   30.7990000  
H 18.0550000   16.1940000   30.4200000  
H 20.1030000   16.2060000   29.8680000  
H 13.0870000   17.8370000   26.0820000  
C 15.3870000   17.2350000   25.4210000  
C 15.0660000   16.2270000   24.5130000  
C 15.1390000   16.3840000   23.2130000  
C 15.5700000   17.6010000   22.6010000  
C 15.9390000   18.6360000   23.4660000  
C 15.7590000   18.4600000   24.8290000  
C 14.6620000   14.9200000   24.7650000  
C 14.6300000   14.2540000   23.5350000  
N 14.8880000   15.2230000   22.5500000  
O 14.1230000   12.1520000   24.3850000  
C 14.3260000   12.8440000   23.2690000  
O 14.1200000   12.4400000   22.1290000  
O 16.3120000   19.8100000   22.8940000  
O 16.1660000   19.5280000   25.6030000  
H 14.3690000   14.4380000   25.7150000  
H 14.5860000   12.7250000   25.0370000  
H 14.9700000   15.0510000   21.5820000  
H 16.3520000   19.6230000   21.9150000  
H 16.7220000   20.1290000   25.0860000  
C 15.6690000   17.6990000   21.1320000  
C 14.9240000   18.6230000   20.4190000  
C 15.0020000   18.6440000   19.0430000  
C 15.8030000   17.8760000   18.2030000  
C 16.5920000   16.9080000   18.9640000  
C 16.5400000   16.8830000   20.3970000  
C 14.0300000   19.6180000   20.7600000  
C 13.7650000   20.3850000   19.5850000  
N 14.3340000   19.6860000   18.4690000  
O 12.5360000   22.1750000   20.6430000  
C 13.0450000   21.7020000   19.4770000  
O 13.0000000   22.3700000   18.4230000  
O 17.2250000   15.9350000   18.3180000  
O 17.4030000   16.0860000   21.1420000  
H 13.8150000   19.8280000   21.8090000  
H 12.8570000   21.6450000   21.3560000  
H 14.3280000   19.9190000   17.4200000  
H 17.3240000   16.1190000   17.3840000  
H 17.9670000   15.5780000   20.5170000  
C 15.6040000   17.8630000   16.6850000  
C 16.3440000   18.7960000   15.9630000  
C 16.2500000   18.7830000   14.5640000  
C 15.4000000   17.8810000   13.8960000  
C 14.6430000   16.9590000   14.6980000  
C 14.7240000   16.9370000   16.0710000  
C 17.3110000   19.8060000   16.3250000  
C 17.8170000   20.2400000   15.1040000  
N 17.0490000   19.7830000   14.0370000  
O 19.6540000   21.2700000   16.1730000  
C 19.0540000   21.0450000   14.9700000  
O 19.5990000   21.4710000   13.9750000  
O 14.0260000   15.9420000   14.1400000  
O 14.0380000   15.9950000   16.7840000  
H 17.4890000   20.1990000   17.3310000  
H 19.0250000   21.0850000   16.9160000  
H 17.3580000   19.8140000   13.1120000  
H 14.0960000   15.2480000   14.8440000  
H 14.1990000   16.0730000   17.7660000  
H 15.4110000   17.7930000   12.8100000  
