76
100 
C 13.2750000   20.3630000   28.1840000  
C 13.4740000   19.2970000   29.2110000  
C 14.0350000   18.0940000   28.8420000  
C 14.5390000   17.8890000   27.5900000  
C 14.4920000   18.8840000   26.5430000  
C 13.8480000   20.1190000   26.8550000  
C 14.3430000   16.9710000   29.5960000  
C 14.9910000   16.1220000   28.7170000  
N 15.0100000   16.6710000   27.4420000  
O 15.2260000   14.2290000   30.2070000  
C 15.4110000   14.7220000   29.0190000  
O 15.8990000   14.0880000   28.0850000  
O 13.7250000   21.0990000   25.9930000  
O 12.6080000   21.3700000   28.4490000  
H 13.1500000   19.4600000   30.2490000  
H 14.1300000   16.7810000   30.5940000  
H 14.7360000   14.9640000   30.5830000  
H 14.1200000   20.7000000   25.1740000  
C 14.8980000   18.4960000   25.1750000  
C 13.9750000   18.0780000   24.1840000  
C 14.4300000   17.7740000   22.9390000  
C 15.7550000   17.7900000   22.5510000  
C 16.6480000   18.3890000   23.5300000  
C 16.2480000   18.6190000   24.8080000  
C 12.5800000   17.7410000   24.2260000  
C 12.1960000   17.4590000   22.8970000  
N 13.3550000   17.2980000   22.1520000  
O  9.8530000   17.4050000   23.2440000  
C 10.8570000   17.2380000   22.3570000  
O 10.6780000   16.9420000   21.2010000  
O 17.9930000   18.4420000   23.3210000  
O 17.1150000   19.1490000   25.6990000  
H 11.8260000   17.9730000   24.9400000  
H 10.2090000   17.4980000   24.1480000  
H 13.4860000   17.0430000   21.1880000  
H 18.2900000   17.6790000   22.7280000  
H 17.9570000   19.1720000   25.1570000  
C 16.3180000   17.3210000   21.2400000  
C 15.7870000   17.9400000   20.1010000  
C 16.1120000   17.4640000   18.8610000  
C 17.1030000   16.4930000   18.5800000  
C 17.7210000   15.9810000   19.7600000  
C 17.2430000   16.2360000   21.0590000  
C 14.9770000   19.0940000   19.8820000  
C 14.9140000   19.2670000   18.4820000  
N 15.5080000   18.1580000   17.8710000  
O 13.8370000   21.3710000   18.6650000  
C 14.1570000   20.3610000   17.8290000  
O 13.8270000   20.3200000   16.6370000  
O 18.4950000   14.8770000   19.6130000  
O 17.7450000   15.5340000   22.1250000  
H 14.5580000   19.7350000   20.6240000  
H 14.2370000   21.1940000   19.4650000  
H 15.5350000   17.8250000   16.9170000  
H 18.3300000   14.5850000   18.7070000  
H 17.7300000   14.5970000   21.8740000  
C 17.6330000   16.1570000   17.1990000  
C 18.4970000   17.0990000   16.5570000  
C 19.1310000   16.8010000   15.3580000  
C 18.9380000   15.5710000   14.7300000  
C 18.0000000   14.6520000   15.2780000  
C 17.3970000   14.9260000   16.5040000  
C 19.0070000   18.3040000   16.9730000  
C 19.9950000   18.7100000   16.0460000  
N 19.9630000   17.8080000   14.9290000  
O 20.7420000   20.4470000   17.3190000  
C 20.7190000   19.9550000   16.0580000  
O 21.3560000   20.3630000   15.0880000  
O 17.6900000   13.4330000   14.7260000  
O 16.6440000   13.9840000   17.0310000  
H 18.6890000   18.8280000   17.8500000  
H 20.2160000   19.8760000   17.8250000  
H 20.5760000   17.7130000   14.1700000  
H 17.8310000   13.3120000   13.7160000  
H 16.4390000   13.1980000   16.3890000  
H 19.3960000   15.2110000   13.7790000  
