76
100 
C  8.6900000   16.2230000   23.1400000  
C  8.5730000   14.9340000   23.7750000  
C  9.6910000   14.3140000   24.1290000  
C 11.0270000   14.6900000   23.7880000  
C 11.1650000   16.0300000   23.2320000  
C 10.0760000   16.6800000   22.9350000  
C  9.8670000   13.1480000   24.8740000  
C 11.2360000   12.9350000   24.9770000  
N 11.9370000   13.9360000   24.2460000  
O 11.0480000   10.9080000   26.3570000  
C 11.8780000   11.8460000   25.7020000  
O 13.0710000   11.6920000   25.6770000  
O 10.1430000   17.9450000   22.4240000  
O  7.7080000   16.9330000   22.9610000  
H  7.6280000   14.5130000   23.9740000  
H  9.0160000   12.6260000   25.2580000  
H 10.1230000   11.1160000   26.0610000  
H 10.9800000   18.3650000   22.6270000  
C 12.5250000   16.5090000   23.0020000  
C 13.3860000   15.8650000   22.1040000  
C 14.6260000   16.3740000   21.7780000  
C 15.2380000   17.5140000   22.3640000  
C 14.4050000   18.2200000   23.2590000  
C 13.0760000   17.6840000   23.5850000  
C 13.2270000   14.7310000   21.2140000  
C 14.3760000   14.5870000   20.4380000  
N 15.2560000   15.5940000   20.8040000  
O 13.7330000   12.5060000   19.3860000  
C 14.6440000   13.5180000   19.4370000  
O 15.6130000   13.4990000   18.6630000  
O 14.7430000   19.4230000   23.7930000  
O 12.3320000   18.3800000   24.5410000  
H 12.3190000   14.0840000   21.1220000  
H 13.0320000   12.8130000   19.9640000  
H 16.2270000   15.6620000   20.4440000  
H 15.5670000   19.5230000   24.2280000  
H 12.8610000   19.1900000   24.6940000  
C 16.5440000   18.0330000   22.0670000  
C 16.7760000   18.7240000   20.8600000  
C 18.0710000   19.0680000   20.4980000  
C 19.2310000   18.9110000   21.2810000  
C 18.9480000   18.2740000   22.5300000  
C 17.6710000   17.8440000   22.8960000  
C 15.9160000   19.0070000   19.7490000  
C 16.7500000   19.5250000   18.7580000  
N 18.0790000   19.6090000   19.2570000  
O 15.1480000   19.5890000   16.9970000  
C 16.4030000   19.8270000   17.3430000  
O 17.1940000   20.2580000   16.5550000  
O 19.9680000   18.1830000   23.4760000  
O 17.4530000   17.2150000   24.1280000  
H 14.8800000   18.9340000   19.6180000  
H 14.7220000   19.1860000   17.7580000  
H 18.8710000   19.9480000   18.7010000  
H 20.6460000   18.7180000   23.1100000  
H 18.2520000   17.0260000   24.5910000  
C 20.5250000   19.4580000   20.9170000  
C 20.7070000   20.8660000   20.7400000  
C 21.9880000   21.3670000   20.4020000  
C 23.0950000   20.5630000   20.1890000  
C 22.9750000   19.1650000   20.4380000  
C 21.7260000   18.5990000   20.8010000  
C 19.8070000   21.9770000   20.8100000  
C 20.5880000   23.1080000   20.5630000  
N 21.9210000   22.7450000   20.3580000  
O 18.7990000   24.6340000   20.4270000  
C 20.1210000   24.4890000   20.4720000  
O 20.8540000   25.4510000   20.4090000  
O 23.9810000   18.3000000   20.1120000  
O 21.6420000   17.2140000   20.9770000  
H 18.7920000   21.8820000   21.1230000  
H 18.6540000   23.6740000   20.3000000  
H 22.7020000   23.3930000   20.2990000  
H 23.6240000   17.3340000   20.0780000  
H 20.6960000   16.9720000   20.8970000  
H 24.0390000   21.0100000   19.7900000  
