76
100 
C 13.6520000   20.1670000   28.3310000  
C 13.6140000   19.0820000   29.3630000  
C 14.1790000   17.8760000   28.9990000  
C 14.7090000   17.5450000   27.7340000  
C 14.7630000   18.5290000   26.7250000  
C 14.2170000   19.7910000   26.9410000  
C 14.1760000   16.6670000   29.7080000  
C 14.8510000   15.7510000   28.8910000  
N 15.1190000   16.2930000   27.6540000  
O 14.3280000   13.8260000   30.2950000  
C 15.0030000   14.3350000   29.2430000  
O 15.6080000   13.5240000   28.5580000  
O 14.1890000   20.8120000   26.0450000  
O 13.2360000   21.2490000   28.6660000  
H 13.2640000   19.2200000   30.3340000  
H 13.8910000   16.4290000   30.7730000  
H 13.6630000   14.4160000   30.5050000  
H 14.8920000   20.6910000   25.3730000  
C 15.2210000   18.1620000   25.3480000  
C 14.3470000   18.1270000   24.2450000  
C 14.7430000   17.8420000   23.0210000  
C 16.0580000   17.4730000   22.6600000  
C 17.0030000   17.5360000   23.7280000  
C 16.6060000   17.8840000   25.0580000  
C 12.9470000   18.4910000   24.1370000  
C 12.5750000   18.1940000   22.8710000  
N 13.6890000   17.6420000   22.1700000  
O 10.3810000   19.1220000   23.0470000  
C 11.2670000   18.3830000   22.2970000  
O 10.9360000   17.8280000   21.2260000  
O 18.2600000   17.2340000   23.4970000  
O 17.5410000   18.0610000   26.0140000  
H 12.3230000   18.7980000   24.9750000  
H 10.9290000   19.3190000   23.8440000  
H 13.7390000   17.3010000   21.2130000  
H 18.3530000   17.1510000   22.5030000  
H 18.3390000   17.6110000   25.6540000  
C 16.2890000   17.1060000   21.2510000  
C 16.1860000   18.0380000   20.2480000  
C 16.4690000   17.7080000   18.9530000  
C 16.9200000   16.4530000   18.5060000  
C 17.0750000   15.5070000   19.5680000  
C 16.7710000   15.7940000   20.9270000  
C 15.7390000   19.4560000   20.1780000  
C 15.9780000   19.9180000   18.8350000  
N 16.3730000   18.7860000   18.1260000  
O 15.5850000   22.2040000   19.3620000  
C 15.8770000   21.3030000   18.4080000  
O 16.1590000   21.7070000   17.2470000  
O 17.5640000   14.2150000   19.2920000  
O 16.9620000   14.8340000   21.8310000  
H 15.3050000   20.0620000   20.9350000  
H 15.7840000   21.9070000   20.2070000  
H 16.6760000   18.7390000   17.2030000  
H 17.4710000   13.9170000   18.3720000  
H 17.1400000   14.0810000   21.2690000  
C 17.1330000   16.0910000   17.0450000  
C 17.9660000   16.9570000   16.2850000  
C 18.0330000   16.9320000   14.9530000  
C 17.1960000   16.1430000   14.2020000  
C 16.2960000   15.2370000   14.9130000  
C 16.2320000   15.2060000   16.3360000  
C 19.0990000   17.7700000   16.7170000  
C 19.6510000   18.3310000   15.5930000  
N 18.9740000   17.8200000   14.4720000  
O 20.9490000   19.9210000   16.7830000  
C 20.5350000   19.4680000   15.5610000  
O 21.0130000   19.8870000   14.4850000  
O 15.4610000   14.4350000   14.1530000  
O 15.3690000   14.3520000   16.9430000  
H 19.4410000   17.8240000   17.7450000  
H 20.4270000   19.4170000   17.4110000  
H 19.2640000   17.9140000   13.5010000  
H 15.6650000   14.7160000   13.2220000  
H 14.7480000   14.0680000   16.1890000  
H 17.1500000   16.2180000   13.1640000  
