76
100 
C 12.8320000   15.3020000   28.0670000  
C 11.9420000   16.4520000   28.3440000  
C 11.8850000   17.6130000   27.6360000  
C 12.7880000   17.8550000   26.5760000  
C 13.7960000   16.8020000   26.2930000  
C 13.7810000   15.5420000   26.9240000  
C 11.1490000   18.8080000   27.8120000  
C 11.6680000   19.6840000   26.8380000  
N 12.6590000   19.0840000   26.1160000  
O  9.9460000   21.3420000   27.3540000  
C 11.0740000   21.0520000   26.6210000  
O 11.4210000   21.8660000   25.7780000  
O 14.6100000   14.5560000   26.7420000  
O 12.8590000   14.3230000   28.7650000  
H 11.3660000   16.2180000   29.2610000  
H 10.4500000   18.9770000   28.5670000  
H  9.7180000   20.5950000   27.8950000  
H 15.1070000   14.5890000   25.8710000  
C 14.6380000   16.9280000   25.1030000  
C 15.8150000   17.6770000   25.0580000  
C 16.5190000   17.9930000   23.9040000  
C 16.0720000   17.6670000   22.5920000  
C 14.7350000   16.9730000   22.5650000  
C 14.0670000   16.6580000   23.8190000  
C 16.6090000   18.2480000   26.1350000  
C 17.5760000   18.9930000   25.5130000  
N 17.5620000   18.7880000   24.1430000  
O 18.2930000   20.0810000   27.5750000  
C 18.4840000   19.9340000   26.2420000  
O 19.3050000   20.5810000   25.6380000  
O 14.0680000   16.8020000   21.3960000  
O 12.8810000   16.0380000   23.7390000  
H 16.3670000   18.2290000   27.1770000  
H 17.6140000   19.3820000   27.7340000  
H 18.0710000   19.3220000   23.4540000  
H 14.7500000   16.7960000   20.6740000  
H 12.6490000   15.9750000   22.7940000  
C 16.7420000   17.8050000   21.2790000  
C 17.0040000   16.6350000   20.5400000  
C 17.6250000   16.7060000   19.3240000  
C 17.9630000   17.8940000   18.6420000  
C 17.6370000   19.0940000   19.3320000  
C 17.0210000   19.0880000   20.6780000  
C 16.7090000   15.2470000   20.7010000  
C 17.1250000   14.5560000   19.5780000  
N 17.6120000   15.4460000   18.6700000  
O 16.8140000   12.4690000   20.6230000  
C 17.1470000   13.0780000   19.4510000  
O 17.5180000   12.4400000   18.4840000  
O 17.7670000   20.3100000   18.6130000  
O 16.8200000   20.2230000   21.3710000  
H 16.2340000   14.7250000   21.4830000  
H 16.7800000   13.1720000   21.2310000  
H 17.8930000   15.1460000   17.7030000  
H 18.3920000   20.2650000   17.8950000  
H 17.1420000   21.0070000   20.8090000  
C 18.4630000   17.7250000   17.2460000  
C 17.7100000   18.2520000   16.2150000  
C 18.0600000   18.1170000   14.8990000  
C 19.2020000   17.5120000   14.4930000  
C 20.0000000   17.0060000   15.5280000  
C 19.6650000   17.0660000   16.8830000  
C 16.3320000   18.7940000   16.2410000  
C 16.0030000   19.0850000   14.9740000  
N 16.9870000   18.6060000   14.1490000  
O 13.7180000   19.7740000   15.3300000  
C 14.7250000   19.6470000   14.4520000  
O 14.4570000   19.8180000   13.2890000  
O 21.0830000   16.2760000   15.1440000  
O 20.3960000   16.3420000   17.8200000  
H 15.5910000   18.8720000   17.0780000  
H 14.0650000   19.3480000   16.1220000  
H 16.9530000   18.6070000   13.1660000  
H 21.6860000   16.2790000   15.9530000  
H 20.0510000   16.2440000   18.7280000  
H 19.4010000   17.3880000   13.4460000  
