76
100 
C  9.3150000   16.8390000   25.4630000  
C  9.0730000   15.4060000   25.6510000  
C  9.9440000   14.5580000   25.0390000  
C 11.0710000   14.8780000   24.2890000  
C 11.3320000   16.2970000   24.0260000  
C 10.5230000   17.2520000   24.6750000  
C  9.9870000   13.1230000   25.0670000  
C 11.0680000   12.8070000   24.3120000  
N 11.7700000   13.9110000   23.7940000  
O 10.7820000   10.3800000   24.7800000  
C 11.5530000   11.3840000   24.2660000  
O 12.6950000   11.1350000   23.9230000  
O 10.7420000   18.6390000   24.5430000  
O  8.4780000   17.6600000   25.9000000  
H  8.1920000   15.0820000   26.1830000  
H  9.3740000   12.3990000   25.6310000  
H  9.8940000   10.7180000   25.0590000  
H 11.6130000   18.7080000   24.2590000  
C 12.6400000   16.6600000   23.5230000  
C 12.9460000   16.5310000   22.1580000  
C 14.1950000   16.8530000   21.7910000  
C 15.2240000   17.4440000   22.4990000  
C 14.8810000   17.5670000   23.9200000  
C 13.6220000   17.0960000   24.4550000  
C 12.1740000   16.1850000   20.9980000  
C 13.0460000   16.2990000   19.8730000  
N 14.2320000   16.8020000   20.3720000  
O 11.5580000   15.6010000   18.1770000  
C 12.8430000   15.9770000   18.4320000  
O 13.6970000   16.0490000   17.5900000  
O 15.8020000   18.0550000   24.8290000  
O 13.5110000   16.9970000   25.7620000  
H 11.1670000   15.7970000   20.9190000  
H 11.1540000   15.6140000   19.0640000  
H 15.0730000   16.9940000   19.8170000  
H 16.7470000   17.8950000   24.3860000  
H 14.3880000   17.1640000   26.1530000  
C 16.5360000   17.7920000   21.9300000  
C 16.7230000   18.8010000   20.9410000  
C 17.9430000   19.0380000   20.3460000  
C 19.1770000   18.4740000   20.7310000  
C 19.0920000   17.5600000   21.8000000  
C 17.7920000   17.2230000   22.3010000  
C 15.7550000   19.6240000   20.2320000  
C 16.4940000   20.3270000   19.2400000  
N 17.8120000   19.9020000   19.2490000  
O 14.6540000   21.6810000   18.4490000  
C 15.9950000   21.3680000   18.3450000  
O 16.7180000   21.9340000   17.6240000  
O 20.2470000   16.9500000   22.2280000  
O 17.8120000   16.1720000   23.2180000  
H 14.7070000   19.7490000   20.4510000  
H 14.3250000   21.0960000   19.1230000  
H 18.6250000   20.2230000   18.7090000  
H 20.9480000   17.5730000   21.9130000  
H 18.6730000   15.6500000   23.0960000  
C 20.4710000   18.7740000   20.0120000  
C 21.1920000   19.9110000   20.2990000  
C 22.4950000   20.0970000   19.8070000  
C 23.0740000   19.1830000   18.9660000  
C 22.3110000   18.0060000   18.6740000  
C 21.0630000   17.7710000   19.1960000  
C 20.8310000   21.0770000   21.0900000  
C 21.9130000   21.9900000   20.8850000  
N 22.9540000   21.3860000   20.1510000  
O 20.8250000   23.7090000   22.1710000  
C 21.7970000   23.4710000   21.2520000  
O 22.6260000   24.3220000   20.8300000  
O 22.8570000   17.0240000   17.9110000  
O 20.3340000   16.6160000   18.8740000  
H 19.9040000   21.3340000   21.6590000  
H 20.2930000   22.8930000   22.1570000  
H 23.8260000   21.8820000   19.9390000  
H 22.1780000   16.4020000   17.7220000  
H 19.3480000   16.6320000   19.0860000  
H 24.0910000   19.4040000   18.6300000  
