76
100 
C 11.3150000   14.3530000   26.5030000  
C 10.1420000   15.1760000   26.6430000  
C  9.8770000   16.2520000   25.8030000  
C 10.7570000   16.6890000   24.8650000  
C 11.9910000   15.9380000   24.6490000  
C 12.2280000   14.7600000   25.3650000  
C  8.8760000   17.2260000   25.8380000  
C  9.1790000   18.1270000   24.7800000  
N 10.4130000   17.7970000   24.2090000  
O  7.4020000   19.5590000   25.2650000  
C  8.4540000   19.4210000   24.4970000  
O  8.8430000   20.1720000   23.6320000  
O 13.3290000   14.0000000   25.3500000  
O 11.4680000   13.3890000   27.2390000  
H  9.4210000   14.9680000   27.3970000  
H  7.9820000   17.3130000   26.5350000  
H  7.2710000   18.7240000   25.7600000  
H 13.9810000   14.5630000   24.8840000  
C 12.9770000   16.4000000   23.6710000  
C 13.9140000   17.3750000   24.1150000  
C 14.7780000   17.8750000   23.1910000  
C 14.8550000   17.4800000   21.8820000  
C 13.9090000   16.5020000   21.4140000  
C 12.9200000   15.9900000   22.2890000  
C 14.4000000   17.9600000   25.3970000  
C 15.4640000   18.7850000   25.1070000  
N 15.7620000   18.6570000   23.7340000  
O 15.7030000   19.6660000   27.2200000  
C 16.2150000   19.6990000   25.9930000  
O 17.1220000   20.3920000   25.5940000  
O 14.0490000   16.0110000   20.1550000  
O 11.8080000   15.2680000   21.8600000  
H 13.8360000   17.8920000   26.3140000  
H 14.9100000   19.1170000   27.2250000  
H 16.5380000   19.0770000   23.2980000  
H 14.5490000   16.5990000   19.6780000  
H 11.6140000   15.3560000   20.9140000  
C 15.9390000   18.0200000   21.0040000  
C 17.2640000   17.6190000   21.2330000  
C 18.2270000   18.1060000   20.3860000  
C 18.0360000   18.9460000   19.2930000  
C 16.7310000   19.3220000   19.0170000  
C 15.6830000   18.7800000   19.7990000  
C 17.9560000   16.8440000   22.2580000  
C 19.3060000   16.7710000   21.8010000  
N 19.4800000   17.6420000   20.6830000  
O 20.0610000   15.3770000   23.5920000  
C 20.3320000   16.0430000   22.4400000  
O 21.4150000   15.9240000   21.8770000  
O 16.4090000   20.2900000   18.1170000  
O 14.3720000   19.2320000   19.5460000  
H 17.5610000   16.5000000   23.2470000  
H 19.1370000   15.6400000   23.8460000  
H 20.2650000   17.9760000   20.2060000  
H 17.1510000   20.9190000   18.0070000  
H 14.2680000   19.7180000   18.7410000  
C 19.1910000   19.3550000   18.4210000  
C 19.8170000   18.4170000   17.5510000  
C 20.8770000   18.8410000   16.7240000  
C 21.3230000   20.1400000   16.6470000  
C 20.6660000   21.0590000   17.4500000  
C 19.6390000   20.7010000   18.3900000  
C 19.7220000   17.0300000   17.3490000  
C 20.7240000   16.6300000   16.5040000  
N 21.3850000   17.8000000   16.0660000  
O 20.4540000   14.3090000   16.7210000  
C 21.0420000   15.2350000   16.0070000  
O 21.6800000   14.9080000   15.0480000  
O 20.9540000   22.4090000   17.2980000  
O 19.1250000   21.6060000   19.2930000  
H 19.0890000   16.2540000   17.8850000  
H 20.1380000   14.8430000   17.4960000  
H 22.1390000   17.8250000   15.3610000  
H 21.9020000   22.5220000   16.9990000  
H 19.5890000   22.4250000   19.1220000  
H 22.1310000   20.3600000   15.9230000  
