76
100 
C 14.0090000   11.0470000   25.1430000  
C 14.9770000   11.0230000   26.2200000  
C 15.8260000   12.1340000   26.4280000  
C 15.8840000   13.2310000   25.4930000  
C 15.0080000   13.2250000   24.4100000  
C 14.1210000   12.1840000   24.2170000  
C 16.7390000   12.4940000   27.4320000  
C 17.3290000   13.7230000   27.0870000  
N 16.8410000   14.1120000   25.8560000  
O 18.7380000   13.8980000   28.9620000  
C 18.2900000   14.5330000   27.8530000  
O 18.6400000   15.6470000   27.5010000  
O 13.2550000   12.1460000   23.1290000  
O 13.1200000   10.2160000   25.0270000  
H 15.0580000   10.1940000   26.8840000  
H 16.9280000   11.8860000   28.3430000  
H 18.1970000   13.1020000   29.0440000  
H 13.2580000   12.9830000   22.6950000  
C 15.0550000   14.3580000   23.5390000  
C 16.1710000   14.6430000   22.7810000  
C 16.2650000   15.8550000   22.1080000  
C 15.3660000   16.9160000   22.2200000  
C 14.1500000   16.5870000   22.9090000  
C 14.0190000   15.3810000   23.6500000  
C 17.4020000   13.9250000   22.5620000  
C 18.1790000   14.7380000   21.7420000  
N 17.5140000   16.0060000   21.5190000  
O 19.8350000   13.1750000   21.4160000  
C 19.3740000   14.3950000   21.0730000  
O 19.9390000   15.0760000   20.2590000  
O 13.1260000   17.5080000   23.1310000  
O 12.9310000   15.2440000   24.5170000  
H 17.7100000   12.9420000   22.9110000  
H 19.1770000   12.8770000   22.1150000  
H 17.8050000   16.8750000   21.1020000  
H 13.5160000   18.3810000   22.9950000  
H 12.4180000   16.0530000   24.4910000  
C 15.4550000   18.2090000   21.4600000  
C 15.7310000   18.2460000   20.1080000  
C 15.9810000   19.4380000   19.4740000  
C 15.8260000   20.7410000   19.9930000  
C 15.3850000   20.6920000   21.3110000  
C 15.3330000   19.4930000   22.0750000  
C 15.9860000   17.1850000   19.1450000  
C 16.3140000   17.8120000   17.9580000  
N 16.3400000   19.1700000   18.1620000  
O 16.3080000   15.7100000   16.6440000  
C 16.4360000   17.0400000   16.6100000  
O 16.6160000   17.6130000   15.5500000  
O 15.5060000   21.8430000   22.0690000  
O 15.2730000   19.5920000   23.4260000  
H 15.5600000   16.2060000   19.2700000  
H 16.3780000   15.4910000   17.5660000  
H 16.4960000   19.8890000   17.4530000  
H 15.7030000   22.6150000   21.4360000  
H 15.6500000   20.4080000   23.6800000  
C 16.2230000   22.0660000   19.3090000  
C 15.2500000   23.0790000   19.2090000  
C 15.5250000   24.3420000   18.7000000  
C 16.7530000   24.5730000   18.0500000  
C 17.6980000   23.5160000   18.0750000  
C 17.4400000   22.2730000   18.6500000  
C 13.8670000   23.0370000   19.5930000  
C 13.3660000   24.3030000   19.3980000  
N 14.3640000   25.0650000   18.8180000  
O 11.1860000   23.8070000   20.0240000  
C 11.9920000   24.7500000   19.5370000  
O 11.6160000   25.8270000   19.1760000  
O 18.8790000   23.7240000   17.4500000  
O 18.3460000   21.2500000   18.6320000  
H 13.2640000   22.1770000   19.7500000  
H 11.7620000   23.0560000   20.2990000  
H 14.1490000   25.9650000   18.5890000  
H 19.3480000   22.8960000   17.4100000  
H 17.9870000   20.5700000   19.2840000  
H 16.8930000   25.4960000   17.5000000  
