76
100 
C 11.8090000   14.9570000   27.3940000  
C 10.4120000   15.1050000   26.8850000  
C 10.1280000   15.4530000   25.6040000  
C 11.0780000   15.7050000   24.6790000  
C 12.4390000   15.6120000   25.0850000  
C 12.8600000   15.2450000   26.3770000  
C  8.8730000   15.5670000   24.8910000  
C  9.2390000   16.0530000   23.6500000  
N 10.6220000   16.0760000   23.5200000  
O  7.0370000   16.5630000   22.9140000  
C  8.3140000   16.5640000   22.5770000  
O  8.7150000   17.0840000   21.5720000  
O 14.1390000   15.1460000   26.7910000  
O 11.9900000   14.6430000   28.5600000  
H  9.6290000   14.8670000   27.6040000  
H  7.9450000   15.4530000   25.3830000  
H  7.2370000   16.2550000   23.8090000  
H 14.6670000   15.4260000   26.0570000  
C 13.3970000   16.0040000   24.0720000  
C 13.7410000   17.3820000   23.9050000  
C 14.6120000   17.7030000   22.9170000  
C 15.2060000   16.7800000   21.9520000  
C 14.9450000   15.3710000   22.2630000  
C 13.9970000   15.0270000   23.2580000  
C 13.1640000   18.6090000   24.4170000  
C 13.7700000   19.6310000   23.6190000  
N 14.5870000   19.0480000   22.6610000  
O 12.7280000   21.5760000   24.7660000  
C 13.4910000   21.1200000   23.6900000  
O 14.0050000   21.8640000   22.8440000  
O 15.5400000   14.4260000   21.5240000  
O 13.6950000   13.7190000   23.3570000  
H 12.4500000   18.8210000   25.1550000  
H 12.5460000   20.7580000   25.3160000  
H 14.9630000   19.4360000   21.7750000  
H 16.4160000   14.9250000   21.2410000  
H 14.0130000   13.2960000   22.5670000  
C 16.0770000   17.3030000   20.8640000  
C 17.1430000   18.1580000   21.1550000  
C 18.0160000   18.5960000   20.2420000  
C 17.9120000   18.3510000   18.8600000  
C 16.8190000   17.4550000   18.4650000  
C 15.9070000   16.9790000   19.4980000  
C 17.6010000   18.7170000   22.4260000  
C 18.7570000   19.4020000   22.1480000  
N 19.0330000   19.3530000   20.7850000  
O 18.9390000   20.5220000   24.2910000  
C 19.4550000   20.3460000   23.0400000  
O 20.4940000   20.9330000   22.7530000  
O 16.6540000   17.1070000   17.1570000  
O 14.8850000   16.1100000   19.0310000  
H 17.0370000   18.8890000   23.3240000  
H 18.1550000   19.9810000   24.3280000  
H 19.7500000   19.7960000   20.2210000  
H 16.9960000   17.8510000   16.6250000  
H 15.0050000   15.7790000   18.1030000  
C 19.0410000   18.8310000   18.0550000  
C 20.3850000   18.3910000   18.2220000  
C 21.3560000   18.9280000   17.4440000  
C 21.1010000   19.7630000   16.3270000  
C 19.7320000   20.2370000   16.1350000  
C 18.7470000   19.7900000   17.0150000  
C 21.0420000   17.5490000   19.2140000  
C 22.3560000   17.5060000   18.8550000  
N 22.5990000   18.4320000   17.8090000  
O 23.0350000   15.9570000   20.4940000  
C 23.4410000   16.8360000   19.5980000  
O 24.6270000   17.0060000   19.3240000  
O 19.3960000   21.1200000   15.1450000  
O 17.4540000   20.2360000   16.8520000  
H 20.6210000   17.0300000   20.0610000  
H 22.0860000   16.0490000   20.6550000  
H 23.5210000   18.8310000   17.5530000  
H 18.3610000   21.0580000   15.0640000  
H 17.0380000   19.9400000   17.7020000  
H 21.9320000   20.0240000   15.6710000  
