76
100 
C 13.7970000   15.9510000   28.8450000  
C 13.6900000   17.2990000   29.4480000  
C 13.7130000   18.4210000   28.6850000  
C 13.8230000   18.4650000   27.3120000  
C 13.7780000   17.2030000   26.6020000  
C 13.7980000   15.9940000   27.3080000  
C 13.9330000   19.7770000   29.0330000  
C 14.2710000   20.3940000   27.8700000  
N 14.0950000   19.6140000   26.7250000  
O 14.9050000   22.4310000   29.0210000  
C 14.7890000   21.7640000   27.8100000  
O 15.2040000   22.2810000   26.7970000  
O 13.9380000   14.8220000   26.6530000  
O 13.9620000   14.9150000   29.4460000  
H 13.7430000   17.3210000   30.5430000  
H 14.2420000   20.2150000   30.0700000  
H 14.5820000   21.8480000   29.7400000  
H 14.1970000   14.9870000   25.7270000  
C 14.0940000   17.2190000   25.1600000  
C 15.3370000   16.7870000   24.7620000  
C 15.6680000   16.7250000   23.4460000  
C 14.8800000   17.2460000   22.3630000  
C 13.5820000   17.7390000   22.7290000  
C 13.1860000   17.6130000   24.1110000  
C 16.4110000   16.1680000   25.4430000  
C 17.4540000   15.9030000   24.5040000  
N 16.9440000   16.3060000   23.2050000  
O 19.0540000   15.0530000   26.1900000  
C 18.8260000   15.4280000   24.8870000  
O 19.6650000   15.3930000   23.9810000  
O 12.7730000   18.3460000   21.8650000  
O 11.9360000   18.0790000   24.5100000  
H 16.4350000   15.9920000   26.5270000  
H 18.2470000   15.3240000   26.6290000  
H 17.3990000   16.1720000   22.2970000  
H 13.3210000   18.5740000   21.0990000  
H 11.4830000   18.4760000   23.7450000  
C 15.5230000   17.3920000   20.9940000  
C 15.3840000   16.4990000   19.8930000  
C 16.1450000   16.6370000   18.7850000  
C 17.0600000   17.6600000   18.5040000  
C 17.2030000   18.5520000   19.5650000  
C 16.4960000   18.4030000   20.7560000  
C 14.4850000   15.3140000   19.7480000  
C 14.8200000   14.8520000   18.5090000  
N 15.7910000   15.6130000   17.9020000  
O 13.4510000   12.8830000   18.7050000  
C 14.1600000   13.7240000   17.8460000  
O 14.2990000   13.4730000   16.6730000  
O 18.0260000   19.6210000   19.4020000  
O 16.6850000   19.3740000   21.6960000  
H 13.6820000   14.9440000   20.3810000  
H 13.6910000   13.0870000   19.5810000  
H 15.9690000   15.6260000   16.9320000  
H 18.5400000   19.5110000   18.5910000  
H 17.4180000   19.9340000   21.5190000  
C 17.8620000   17.7660000   17.2980000  
C 17.6520000   18.8400000   16.4490000  
C 18.3330000   18.8950000   15.2280000  
C 19.2030000   17.9510000   14.7610000  
C 19.4710000   16.8600000   15.6210000  
C 18.7840000   16.7360000   16.8760000  
C 16.7290000   19.9240000   16.5110000  
C 16.8930000   20.5820000   15.3270000  
N 17.8670000   19.9280000   14.5450000  
O 15.1050000   22.2700000   15.6660000  
C 16.0910000   21.8070000   14.8520000  
O 16.3730000   22.4440000   13.8740000  
O 20.2890000   15.8680000   15.1540000  
O 18.8200000   15.5310000   17.5410000  
H 15.9440000   20.1610000   17.2370000  
H 15.0920000   21.6240000   16.3880000  
H 18.0840000   20.2820000   13.6660000  
H 20.6110000   15.2870000   15.8250000  
H 18.1640000   15.5640000   18.2760000  
H 19.5990000   17.9580000   13.7380000  
