76
100 
C 14.5470000   12.0050000   26.3470000  
C 14.5410000   10.7230000   25.4790000  
C 15.0540000   10.8200000   24.2370000  
C 15.5340000   11.9810000   23.6140000  
C 15.3940000   13.1800000   24.3280000  
C 14.9720000   13.2470000   25.6810000  
C 15.2000000    9.8270000   23.2720000  
C 15.6480000   10.4870000   22.1500000  
N 15.9050000   11.8450000   22.3720000  
O 15.7360000    8.6020000   20.6790000  
C 16.0040000    9.9110000   20.8720000  
O 16.6310000   10.5650000   20.0320000  
O 14.9000000   14.3340000   26.4130000  
O 14.3620000   12.0030000   27.5420000  
H 14.1530000    9.8460000   25.8870000  
H 15.0170000    8.7760000   23.3740000  
H 15.3420000    8.2270000   21.4650000  
H 15.2720000   15.0310000   25.7780000  
C 15.7040000   14.4150000   23.6540000  
C 14.6550000   15.0690000   23.0740000  
C 14.7730000   16.2770000   22.3770000  
C 16.0380000   16.8320000   22.1050000  
C 17.1710000   16.1230000   22.6580000  
C 16.9950000   14.9530000   23.5040000  
C 13.2860000   14.6870000   22.9850000  
C 12.6230000   15.7330000   22.3050000  
N 13.5310000   16.6900000   21.9080000  
O 10.3670000   14.8080000   22.6350000  
C 11.1630000   15.7680000   22.1180000  
O 10.6310000   16.7260000   21.5120000  
O 18.4620000   16.6270000   22.4810000  
O 18.1570000   14.3830000   23.9460000  
H 12.8210000   13.8950000   23.4570000  
H 10.8550000   14.2960000   23.3210000  
H 13.4040000   17.5430000   21.2960000  
H 18.5080000   17.4250000   21.8990000  
H 18.8130000   14.7710000   23.3710000  
C 16.2010000   18.0200000   21.2150000  
C 15.6850000   19.2550000   21.6780000  
C 16.0520000   20.3690000   20.9480000  
C 16.7540000   20.3910000   19.7060000  
C 17.2410000   19.1430000   19.2720000  
C 17.0130000   17.9430000   20.0300000  
C 14.8640000   19.7240000   22.7300000  
C 14.7600000   21.0870000   22.5540000  
N 15.4570000   21.5080000   21.4570000  
O 13.1760000   21.3790000   24.3030000  
C 13.8490000   21.9650000   23.2940000  
O 13.7930000   23.1960000   23.0140000  
O 17.9070000   18.9260000   18.1670000  
O 17.5340000   16.7410000   19.5380000  
H 14.3600000   19.1010000   23.4940000  
H 13.2180000   20.4200000   24.3120000  
H 15.4390000   22.4370000   21.0550000  
H 18.0480000   19.7440000   17.7130000  
H 17.9390000   16.8520000   18.6230000  
C 17.0300000   21.6790000   18.8930000  
C 17.7020000   22.8160000   19.4060000  
C 17.9290000   23.9500000   18.6740000  
C 17.5090000   24.0330000   17.2960000  
C 16.8700000   22.9120000   16.7900000  
C 16.5950000   21.7670000   17.5130000  
C 18.1400000   23.0540000   20.7420000  
C 18.6760000   24.3670000   20.7310000  
N 18.5670000   24.9350000   19.4200000  
O 19.0460000   24.5860000   23.1360000  
C 19.1780000   25.1580000   21.8540000  
O 19.6110000   26.2690000   21.7520000  
O 16.6070000   23.0180000   15.4410000  
O 15.8070000   20.8390000   17.0010000  
H 18.0260000   22.2820000   21.5400000  
H 18.3470000   23.9800000   22.8390000  
H 18.8750000   25.8320000   19.0810000  
H 15.9480000   22.3320000   15.2360000  
H 15.5400000   20.2160000   17.5940000  
H 17.6310000   24.9520000   16.6960000  
