76
100 
C 12.9890000   10.9970000   21.1630000  
C 11.6600000   10.8480000   21.8800000  
C 11.0960000   11.9940000   22.4270000  
C 11.7460000   13.2190000   22.3830000  
C 13.0940000   13.3520000   21.8430000  
C 13.6820000   12.3070000   21.1780000  
C  9.8780000   12.1530000   23.1920000  
C  9.8910000   13.4570000   23.5820000  
N 11.0430000   14.1420000   23.1290000  
O  8.0030000   13.0990000   24.8320000  
C  8.8010000   14.0660000   24.3940000  
O  8.5480000   15.2370000   24.7100000  
O 14.9810000   12.3670000   20.7930000  
O 13.4350000    9.9810000   20.5670000  
H 11.1270000    9.8780000   21.8440000  
H  9.2570000   11.2980000   23.3850000  
H  8.5230000   12.3180000   24.5630000  
H 15.2220000   13.2980000   20.8100000  
C 13.6350000   14.7420000   21.8590000  
C 14.5790000   15.0870000   22.8260000  
C 15.2490000   16.2900000   22.8630000  
C 15.0720000   17.2910000   21.8620000  
C 14.0700000   16.9540000   20.8660000  
C 13.3460000   15.7190000   20.8950000  
C 15.0830000   14.2890000   23.9080000  
C 16.1470000   15.0300000   24.4220000  
N 16.2000000   16.3280000   23.8110000  
O 16.8190000   13.4520000   26.0570000  
C 16.9390000   14.6720000   25.5770000  
O 17.7410000   15.4940000   26.0260000  
O 13.7820000   17.8440000   19.7760000  
O 12.3670000   15.4360000   20.0020000  
H 14.8190000   13.3180000   24.2940000  
H 16.1420000   13.0840000   25.5430000  
H 16.7610000   17.1090000   23.9760000  
H 14.5720000   18.3180000   19.5190000  
H 12.2370000   16.2040000   19.4140000  
C 15.9040000   18.4570000   21.7820000  
C 17.2490000   18.4400000   21.4660000  
C 17.9990000   19.5620000   21.3940000  
C 17.5500000   20.8480000   21.5890000  
C 16.1670000   20.9030000   21.9670000  
C 15.3020000   19.7680000   21.9610000  
C 18.1350000   17.3900000   21.1620000  
C 19.3310000   17.9080000   20.6030000  
N 19.3180000   19.2270000   21.0410000  
O 20.1330000   15.9080000   19.6140000  
C 20.3730000   17.1490000   19.8880000  
O 21.4130000   17.6350000   19.5010000  
O 15.6900000   22.1390000   22.2470000  
O 13.9270000   19.8660000   22.1520000  
H 17.9670000   16.3120000   21.1040000  
H 19.1680000   15.7420000   19.7900000  
H 20.0210000   19.9260000   20.8960000  
H 16.4140000   22.7140000   22.3800000  
H 13.8100000   20.7440000   22.3420000  
C 18.4860000   21.9950000   21.5890000  
C 18.7760000   22.6810000   20.4170000  
C 19.5430000   23.8380000   20.4230000  
C 20.2230000   24.3250000   21.5540000  
C 19.8940000   23.6700000   22.7990000  
C 18.9500000   22.5440000   22.8220000  
C 18.4170000   22.4190000   19.0330000  
C 18.8740000   23.5600000   18.2780000  
N 19.6170000   24.3540000   19.1470000  
O 18.2200000   22.7850000   16.1170000  
C 18.8340000   23.7810000   16.8280000  
O 19.4980000   24.6570000   16.2300000  
O 20.3240000   24.2380000   23.9370000  
O 18.5690000   22.0480000   23.9780000  
H 17.9120000   21.5230000   18.6860000  
H 17.9030000   22.1900000   16.7660000  
H 20.0710000   25.1930000   18.8650000  
H 20.0180000   23.6880000   24.6010000  
H 17.9140000   21.3670000   23.8450000  
H 20.7440000   25.3170000   21.5060000  
