76
100 
C 11.2590000   19.8340000   27.4650000  
C 11.9040000   19.3420000   28.6780000  
C 13.1110000   18.6540000   28.5600000  
C 13.7240000   18.3290000   27.3340000  
C 13.1330000   18.7200000   26.1170000  
C 12.0380000   19.5520000   26.1590000  
C 13.9740000   18.1630000   29.5740000  
C 15.0400000   17.5420000   28.9010000  
N 14.8800000   17.7330000   27.5470000  
O 15.9390000   16.8270000   30.9860000  
C 16.0380000   16.7860000   29.6460000  
O 17.0020000   16.0940000   29.2410000  
O 11.5560000   20.1840000   24.9930000  
O 10.2030000   20.4310000   27.4310000  
H 11.5280000   19.5790000   29.6750000  
H 13.8450000   18.2940000   30.6410000  
H 15.2090000   17.3910000   31.0300000  
H 11.8560000   19.6280000   24.2940000  
C 13.8420000   18.4760000   24.8950000  
C 13.5210000   17.5170000   23.9150000  
C 14.2670000   17.2490000   22.8400000  
C 15.4450000   17.8950000   22.4770000  
C 15.8020000   18.9630000   23.3650000  
C 14.9690000   19.2420000   24.5310000  
C 12.4420000   16.5820000   23.8780000  
C 12.6460000   15.6420000   22.8680000  
N 13.7960000   16.1270000   22.2280000  
O 10.6750000   14.3510000   23.1440000  
C 11.9040000   14.4930000   22.4970000  
O 12.3050000   13.6830000   21.6940000  
O 17.0090000   19.5760000   23.1320000  
O 15.4830000   20.1890000   25.3760000  
H 11.6340000   16.4790000   24.5110000  
H 10.5470000   15.2010000   23.6290000  
H 14.3510000   15.6200000   21.4960000  
H 17.5180000   18.9480000   22.5170000  
H 16.3440000   20.3480000   25.0210000  
C 16.2960000   17.4990000   21.3000000  
C 15.8450000   17.7300000   19.9440000  
C 16.6140000   17.3470000   18.8840000  
C 17.9250000   16.7760000   18.9890000  
C 18.3960000   16.5670000   20.3290000  
C 17.5980000   16.9160000   21.4190000  
C 14.6250000   18.2530000   19.3600000  
C 14.7340000   18.1230000   18.0100000  
N 15.9920000   17.6130000   17.6900000  
O 12.5290000   18.9580000   17.4510000  
C 13.7660000   18.6080000   16.9330000  
O 14.0110000   18.6830000   15.7690000  
O 19.5780000   15.9840000   20.5200000  
O 18.0100000   16.5920000   22.6370000  
H 13.7730000   18.5860000   19.8980000  
H 12.6260000   18.9110000   18.4080000  
H 16.3650000   17.6800000   16.7630000  
H 19.8370000   15.6410000   19.6490000  
H 18.9220000   16.2060000   22.5130000  
C 18.7800000   16.4340000   17.7750000  
C 19.0960000   17.4520000   16.7820000  
C 20.0690000   17.2050000   15.8210000  
C 20.6830000   15.9410000   15.6500000  
C 20.3300000   14.9120000   16.5250000  
C 19.4430000   15.1310000   17.6400000  
C 18.7790000   18.8720000   16.6880000  
C 19.6260000   19.4380000   15.7470000  
N 20.3740000   18.3770000   15.2050000  
O 18.9590000   21.6950000   16.0590000  
C 19.8390000   20.9140000   15.4000000  
O 20.5570000   21.3180000   14.5550000  
O 20.8530000   13.6910000   16.1910000  
O 19.1500000   14.1400000   18.5350000  
H 18.1320000   19.4080000   17.3620000  
H 18.2850000   21.1140000   16.4900000  
H 21.1400000   18.4680000   14.5660000  
H 21.0260000   13.6730000   15.2940000  
H 19.7030000   13.3510000   18.4690000  
H 21.4160000   15.8300000   14.9300000  
