76
100 
C 15.3870000   14.2090000   28.4530000  
C 16.6990000   13.5820000   28.5970000  
C 17.6450000   13.5720000   27.6670000  
C 17.4310000   14.1980000   26.4170000  
C 16.2120000   14.9220000   26.1820000  
C 15.2370000   14.9840000   27.1580000  
C 18.9230000   13.1610000   27.6080000  
C 19.4020000   13.4850000   26.3500000  
N 18.4390000   14.1760000   25.6360000  
O 21.6210000   12.6530000   26.5930000  
C 20.8200000   13.4040000   25.8610000  
O 21.2130000   13.8920000   24.7840000  
O 14.1540000   15.7380000   26.9850000  
O 14.5550000   14.1240000   29.3570000  
H 16.8780000   13.1230000   29.5400000  
H 19.4520000   12.7030000   28.4230000  
H 20.9860000   12.1930000   27.2310000  
H 13.9470000   15.8050000   26.0150000  
C 16.1380000   15.8540000   25.0150000  
C 15.7020000   15.3750000   23.8020000  
C 15.5620000   16.1690000   22.7210000  
C 16.0280000   17.4970000   22.6210000  
C 16.5440000   17.9780000   23.8300000  
C 16.5630000   17.2240000   25.0580000  
C 15.2440000   14.0800000   23.4170000  
C 14.8510000   14.1180000   22.1070000  
N 15.0780000   15.4530000   21.6510000  
O 13.9520000   11.9100000   21.8970000  
C 14.2940000   13.0670000   21.2160000  
O 14.0780000   13.2310000   20.0210000  
O 17.0590000   19.2390000   23.8120000  
O 17.5300000   17.5780000   26.0660000  
H 15.2990000   13.1820000   23.9760000  
H 14.0950000   12.2040000   22.8400000  
H 14.9610000   15.6830000   20.7310000  
H 17.3080000   19.4760000   22.9150000  
H 17.8020000   18.5000000   26.0190000  
C 16.0310000   18.2230000   21.3340000  
C 14.8170000   18.5540000   20.6980000  
C 14.8200000   19.2080000   19.5040000  
C 15.9790000   19.5500000   18.7600000  
C 17.1730000   19.1760000   19.4030000  
C 17.2230000   18.6090000   20.6830000  
C 13.4190000   18.2760000   21.0350000  
C 12.6180000   18.8090000   19.9980000  
N 13.5630000   19.3500000   19.0770000  
O 10.3400000   18.3340000   20.7610000  
C 11.1600000   18.9730000   19.9290000  
O 10.7500000   19.5570000   18.9580000  
O 18.3330000   19.4730000   18.7540000  
O 18.5040000   18.2270000   21.0780000  
H 13.0620000   17.8160000   21.9670000  
H 10.8090000   17.9690000   21.4660000  
H 13.3560000   19.9210000   18.2300000  
H 18.0110000   19.7740000   17.8490000  
H 19.0720000   18.1730000   20.3150000  
C 15.8620000   20.1890000   17.4880000  
C 15.3460000   21.5090000   17.3620000  
C 15.3830000   22.2360000   16.2280000  
C 15.9440000   21.6830000   15.0450000  
C 16.4200000   20.3220000   15.0890000  
C 16.4680000   19.6620000   16.3630000  
C 14.8060000   22.4730000   18.3600000  
C 14.6420000   23.7280000   17.7810000  
N 14.9800000   23.5290000   16.3820000  
O 13.9360000   24.6970000   19.7140000  
C 14.2660000   24.9190000   18.4160000  
O 14.1400000   25.9930000   17.9130000  
O 16.8280000   19.6380000   14.0210000  
O 17.1120000   18.4420000   16.5320000  
H 14.6210000   22.2060000   19.4230000  
H 14.0910000   23.7520000   19.9260000  
H 14.9590000   24.2620000   15.7030000  
H 16.6890000   20.2450000   13.2910000  
H 17.2760000   18.0520000   15.6470000  
H 15.9090000   22.2300000   14.1370000  
