76
100 
C 12.9250000   16.7060000   28.5820000  
C 11.4980000   16.5210000   28.2730000  
C 11.0490000   16.5540000   26.9950000  
C 11.7920000   16.9150000   25.8810000  
C 13.1140000   17.2590000   26.1200000  
C 13.7290000   17.1250000   27.3690000  
C  9.8010000   16.3480000   26.4340000  
C  9.9330000   16.4860000   25.0640000  
N 11.1710000   16.8700000   24.7070000  
O  7.6930000   15.9220000   24.7110000  
C  8.8660000   16.1710000   24.1090000  
O  8.9970000   16.1230000   22.8970000  
O 15.0520000   17.2720000   27.5750000  
O 13.4320000   16.5560000   29.7050000  
H 10.7330000   16.3500000   29.0360000  
H  8.9530000   16.0760000   27.0860000  
H  7.9270000   16.1030000   25.6110000  
H 15.4710000   17.5990000   26.7900000  
C 14.0320000   17.5150000   25.0190000  
C 13.9970000   18.7850000   24.3150000  
C 14.7380000   18.9500000   23.1850000  
C 15.5970000   17.9670000   22.5690000  
C 15.7490000   16.7750000   23.3100000  
C 14.9260000   16.5220000   24.4450000  
C 13.0540000   19.9690000   24.4280000  
C 13.4010000   20.7670000   23.3140000  
N 14.4170000   20.1110000   22.5400000  
O 11.5990000   22.2600000   23.5810000  
C 12.7240000   22.0250000   22.8950000  
O 12.9830000   22.8550000   22.0380000  
O 16.5620000   15.8250000   22.8340000  
O 15.1840000   15.3550000   25.2060000  
H 12.1980000   20.0410000   25.0350000  
H 11.4300000   21.4590000   24.1270000  
H 14.8530000   20.3840000   21.6870000  
H 17.1750000   16.1820000   22.1500000  
H 15.9580000   14.9060000   24.8050000  
C 16.3730000   18.1970000   21.2920000  
C 17.7520000   18.0840000   21.3180000  
C 18.4030000   18.0730000   20.0940000  
C 17.8130000   18.3390000   18.8370000  
C 16.4210000   18.5070000   18.8480000  
C 15.6900000   18.4820000   20.0380000  
C 18.8000000   17.8990000   22.2710000  
C 19.9590000   17.6560000   21.5600000  
N 19.6810000   17.7400000   20.2180000  
O 21.4440000   17.6480000   23.4990000  
C 21.3440000   17.4830000   22.1510000  
O 22.3470000   17.1290000   21.5230000  
O 15.7640000   18.6450000   17.7040000  
O 14.3410000   18.5890000   19.9800000  
H 18.6600000   17.9800000   23.3190000  
H 20.5300000   17.7400000   23.8260000  
H 20.2350000   17.7530000   19.4130000  
H 16.3400000   18.8750000   16.8700000  
H 13.9950000   18.5030000   19.1160000  
C 18.7480000   18.4060000   17.6640000  
C 18.9620000   17.2100000   16.9320000  
C 19.9400000   17.1590000   15.9350000  
C 20.6810000   18.2890000   15.5830000  
C 20.5000000   19.4540000   16.3010000  
C 19.5660000   19.5630000   17.3730000  
C 18.4970000   15.8470000   17.1130000  
C 19.1290000   15.0680000   16.1480000  
N 20.0810000   15.8820000   15.4700000  
O 17.9620000   13.1080000   16.7790000  
C 18.8340000   13.6550000   15.8650000  
O 19.1650000   13.0160000   14.8740000  
O 21.1360000   20.5820000   15.8590000  
O 19.3970000   20.8070000   18.0570000  
H 17.8050000   15.5230000   17.9120000  
H 17.7650000   13.8200000   17.4360000  
H 20.7980000   15.7000000   14.7780000  
H 21.1480000   21.3300000   16.4910000  
H 18.6080000   20.8430000   18.6570000  
H 21.3950000   18.2420000   14.7900000  
