76
100 
C 13.7730000   15.7240000   28.8680000  
C 14.3000000   16.9120000   29.6650000  
C 14.9780000   17.9170000   29.0350000  
C 14.9880000   18.0410000   27.6170000  
C 14.3470000   17.1000000   26.8050000  
C 13.8080000   15.9660000   27.4090000  
C 15.5000000   19.1050000   29.5930000  
C 15.9590000   19.8060000   28.4660000  
N 15.5920000   19.1880000   27.2880000  
O 17.1720000   21.4750000   29.6300000  
C 16.7630000   21.0510000   28.4400000  
O 17.1330000   21.6360000   27.4170000  
O 13.2300000   14.9340000   26.6640000  
O 13.2650000   14.7480000   29.4560000  
H 14.3090000   16.8460000   30.7110000  
H 15.6790000   19.3870000   30.6400000  
H 16.6880000   20.8700000   30.2540000  
H 13.2420000   15.1290000   25.7510000  
C 14.5920000   17.2290000   25.3670000  
C 15.2450000   16.2130000   24.6840000  
C 15.5710000   16.3670000   23.3200000  
C 15.4470000   17.5950000   22.5920000  
C 14.6390000   18.5970000   23.2540000  
C 14.2160000   18.3900000   24.6140000  
C 15.9100000   14.9740000   25.1470000  
C 16.4610000   14.4390000   23.9470000  
N 16.3430000   15.3180000   22.8340000  
O 17.4150000   12.5610000   25.0520000  
C 17.2130000   13.1450000   23.8450000  
O 17.6880000   12.6820000   22.8330000  
O 14.3820000   19.8030000   22.5830000  
O 13.3400000   19.2360000   25.3220000  
H 15.8860000   14.4610000   26.0790000  
H 16.8600000   13.0620000   25.7120000  
H 16.8120000   15.1450000   21.9080000  
H 14.8820000   19.8100000   21.7320000  
H 13.0700000   19.9980000   24.7930000  
C 15.9010000   17.7640000   21.1580000  
C 14.9800000   17.5420000   20.0940000  
C 15.4640000   17.5440000   18.7830000  
C 16.7720000   17.8780000   18.3530000  
C 17.6610000   18.2780000   19.4650000  
C 17.1980000   18.2090000   20.7950000  
C 13.6530000   16.9820000   19.9710000  
C 13.3180000   16.7880000   18.6880000  
N 14.4880000   17.0180000   17.9580000  
O 11.0150000   16.1240000   19.1530000  
C 12.0250000   16.2040000   18.2090000  
O 11.8160000   15.7700000   17.0590000  
O 18.9510000   18.6690000   19.2790000  
O 18.0530000   18.5950000   21.7270000  
H 13.0450000   16.7970000   20.8470000  
H 11.4380000   16.4720000   19.9810000  
H 14.5200000   17.0830000   16.9060000  
H 19.1220000   18.6890000   18.2780000  
H 18.9420000   18.3650000   21.3420000  
C 17.3150000   17.7430000   16.9840000  
C 17.3500000   18.8320000   16.1260000  
C 17.9920000   18.7810000   14.9040000  
C 18.4260000   17.5450000   14.3650000  
C 18.3040000   16.3790000   15.1470000  
C 17.7890000   16.4700000   16.4760000  
C 16.8290000   20.1970000   16.1860000  
C 17.3040000   20.8460000   15.0190000  
N 18.0850000   20.0320000   14.2440000  
O 16.0980000   22.7940000   15.4570000  
C 17.0050000   22.2690000   14.5720000  
O 17.3520000   22.8460000   13.5580000  
O 18.7170000   15.1950000   14.6910000  
O 17.7850000   15.3910000   17.2680000  
H 16.1830000   20.6670000   16.9340000  
H 15.7900000   22.1070000   16.1360000  
H 18.5320000   20.1880000   13.3390000  
H 18.9920000   14.6890000   15.4570000  
H 17.3120000   15.5290000   18.1420000  
H 18.8470000   17.4630000   13.3330000  
