76
100 
C 19.4400000   13.8600000   27.1720000  
C 18.4210000   13.2000000   28.0210000  
C 17.0930000   13.4250000   27.6980000  
C 16.6700000   14.0780000   26.5170000  
C 17.6740000   14.6410000   25.6550000  
C 19.0010000   14.5670000   26.0000000  
C 15.9510000   12.9490000   28.2970000  
C 14.9060000   13.3980000   27.4680000  
N 15.3280000   14.0430000   26.3680000  
O 13.2550000   12.4960000   28.7670000  
C 13.4730000   13.1220000   27.6590000  
O 12.5530000   13.4680000   26.9140000  
O 19.9690000   15.1770000   25.2510000  
O 20.6480000   13.6510000   27.4330000  
H 18.7060000   12.6780000   28.9250000  
H 15.9170000   12.4210000   29.1870000  
H 14.1600000   12.2650000   29.1110000  
H 19.5070000   15.7900000   24.5550000  
C 17.2340000   15.3190000   24.4190000  
C 16.5410000   16.5340000   24.4600000  
C 16.1500000   17.1520000   23.3500000  
C 16.4110000   16.7600000   22.0020000  
C 17.1300000   15.5240000   21.9930000  
C 17.5220000   14.8170000   23.1110000  
C 16.1690000   17.4010000   25.5610000  
C 15.5530000   18.5150000   24.9310000  
N 15.4550000   18.2890000   23.5780000  
O 15.1200000   19.7780000   26.9540000  
C 14.9740000   19.6490000   25.5920000  
O 14.4740000   20.6070000   24.9700000  
O 17.4210000   15.0630000   20.6560000  
O 18.2570000   13.7500000   22.8220000  
H 16.3350000   17.2140000   26.5890000  
H 15.5990000   18.9730000   27.2760000  
H 14.9270000   18.7250000   22.8150000  
H 16.8770000   15.5950000   20.0090000  
H 18.2790000   13.6800000   21.8370000  
C 15.8260000   17.5160000   20.8280000  
C 16.2460000   18.8170000   20.5370000  
C 15.6650000   19.5150000   19.5140000  
C 14.5330000   19.0680000   18.7280000  
C 14.0450000   17.7860000   19.1050000  
C 14.7900000   16.9930000   20.0010000  
C 17.2770000   19.7070000   21.1500000  
C 17.1700000   20.9380000   20.5080000  
N 16.2010000   20.7770000   19.4470000  
O 18.6230000   22.2600000   21.9050000  
C 17.7700000   22.2560000   20.8440000  
O 17.5530000   23.2950000   20.2080000  
O 12.9230000   17.2940000   18.4390000  
O 14.3280000   15.7990000   20.2380000  
H 17.7480000   19.5630000   22.1260000  
H 18.7830000   21.3520000   22.0590000  
H 15.8380000   21.4190000   18.7200000  
H 12.9490000   17.8680000   17.6480000  
H 13.4380000   15.8220000   19.8700000  
C 13.8580000   19.8360000   17.6560000  
C 14.5990000   20.0510000   16.4650000  
C 14.0030000   20.6460000   15.4120000  
C 12.6560000   21.0230000   15.4070000  
C 11.9670000   20.8870000   16.6770000  
C 12.5280000   20.3750000   17.8130000  
C 15.9290000   19.6950000   16.0860000  
C 16.0750000   20.1070000   14.7550000  
N 14.9950000   20.8750000   14.4150000  
O 18.2340000   19.1520000   14.5920000  
C 17.2710000   19.8880000   14.0120000  
O 17.5130000   20.5400000   12.9740000  
O 10.7320000   21.4120000   16.7040000  
O 11.7910000   20.0590000   18.9610000  
H 16.7680000   19.2250000   16.6850000  
H 17.8400000   18.8850000   15.4210000  
H 14.9840000   21.4080000   13.5840000  
H 10.2660000   20.9150000   17.3820000  
H 12.4220000   19.5360000   19.5440000  
H 12.2630000   21.6370000   14.5710000  
