76
100 
C 15.0700000   10.7110000   24.2020000  
C 13.7130000   10.1800000   23.8630000  
C 12.9130000   11.0060000   23.0510000  
C 13.2740000   12.2750000   22.6560000  
C 14.6050000   12.7640000   22.9020000  
C 15.4500000   12.0670000   23.7510000  
C 11.7350000   10.6260000   22.3120000  
C 11.4940000   11.7620000   21.5340000  
N 12.4180000   12.7550000   21.7670000  
O  9.6320000   10.7900000   20.3700000  
C 10.4100000   11.8670000   20.5760000  
O 10.1660000   12.8870000   19.9950000  
O 16.6790000   12.3860000   24.1970000  
O 15.8390000   10.0400000   24.8710000  
H 13.4820000    9.1840000   24.1840000  
H 11.2570000    9.6690000   22.2840000  
H  9.8180000   10.0750000   21.0120000  
H 16.9400000   13.1890000   23.6220000  
C 14.9610000   14.0470000   22.3720000  
C 14.9150000   15.2160000   23.1870000  
C 15.2110000   16.4840000   22.6910000  
C 15.4780000   16.7490000   21.3010000  
C 15.4450000   15.5360000   20.4550000  
C 15.0690000   14.3020000   20.9850000  
C 14.5170000   15.4530000   24.5630000  
C 14.7150000   16.8380000   24.8060000  
N 15.0810000   17.4610000   23.6230000  
O 13.9120000   16.7360000   26.9610000  
C 14.5050000   17.5540000   26.1350000  
O 14.7980000   18.7280000   26.3940000  
O 15.8180000   15.6080000   19.1550000  
O 14.9510000   13.2080000   20.0780000  
H 14.2110000   14.6660000   25.1160000  
H 13.7770000   15.9880000   26.3810000  
H 15.1520000   18.4320000   23.3510000  
H 15.6100000   16.4990000   18.8020000  
H 14.9220000   13.5590000   19.1490000  
C 15.8140000   18.1110000   20.8080000  
C 16.8600000   18.8020000   21.3920000  
C 17.1720000   20.0600000   21.0990000  
C 16.3470000   20.9100000   20.3880000  
C 15.2300000   20.1970000   19.7060000  
C 15.0240000   18.7480000   19.8320000  
C 17.7340000   18.4070000   22.4490000  
C 18.4960000   19.5010000   22.7810000  
N 18.2100000   20.4870000   21.8060000  
O 19.8550000   18.5160000   24.4560000  
C 19.5830000   19.6680000   23.8020000  
O 20.1500000   20.7170000   23.9970000  
O 14.3290000   20.8730000   18.8360000  
O 13.9630000   18.1130000   19.2060000  
H 17.8670000   17.4080000   22.7540000  
H 19.1630000   17.9380000   24.1510000  
H 18.6120000   21.4510000   21.7450000  
H 14.5830000   21.8020000   18.8840000  
H 13.4150000   18.8560000   18.7810000  
C 16.6570000   22.3200000   20.3090000  
C 17.8840000   22.7600000   19.8490000  
C 18.2350000   24.0840000   19.8980000  
C 17.3460000   25.1070000   20.3260000  
C 16.1370000   24.6570000   20.7690000  
C 15.7530000   23.2860000   20.6890000  
C 19.0740000   22.0790000   19.3390000  
C 20.0370000   23.0490000   19.1320000  
N 19.5280000   24.2930000   19.4920000  
O 21.6310000   21.6170000   18.0430000  
C 21.3400000   22.8620000   18.4740000  
O 22.1010000   23.7990000   18.4010000  
O 15.2460000   25.5720000   21.1700000  
O 14.5860000   23.0150000   21.2700000  
H 19.1320000   21.0250000   18.9810000  
H 20.8620000   21.0520000   18.2140000  
H 19.9550000   25.1980000   19.2840000  
H 14.4670000   25.1240000   21.3670000  
H 14.8020000   22.1750000   21.6370000  
H 17.5930000   26.2200000   20.3360000  
