76
100 
C 10.9130000   14.7940000   26.4460000  
C  9.7820000   15.6650000   26.7370000  
C  9.7200000   16.8740000   25.9930000  
C 10.6490000   17.2680000   24.9950000  
C 11.7990000   16.4640000   24.8070000  
C 11.9470000   15.3500000   25.6080000  
C  8.7680000   17.8650000   26.0380000  
C  9.1150000   18.7590000   25.0410000  
N 10.2950000   18.4120000   24.3850000  
O  7.4530000   20.2990000   25.9260000  
C  8.2660000   20.0500000   24.8920000  
O  8.4430000   20.9040000   24.0790000  
O 13.0560000   14.5110000   25.4820000  
O 10.9540000   13.6440000   26.8310000  
H  8.8900000   15.2940000   27.2290000  
H  7.9260000   17.8580000   26.6240000  
H  7.3010000   19.4620000   26.4270000  
H 13.4390000   14.6910000   24.5960000  
C 12.8000000   16.9340000   23.8800000  
C 14.1060000   17.2110000   24.3090000  
C 15.1380000   17.6640000   23.4780000  
C 14.9860000   17.7590000   22.0760000  
C 13.6630000   17.4320000   21.6180000  
C 12.5700000   17.0400000   22.4680000  
C 14.6750000   17.0910000   25.5930000  
C 16.0530000   17.4160000   25.4960000  
N 16.2980000   17.8270000   24.2070000  
O 16.6600000   17.1100000   27.7650000  
C 17.0770000   17.5490000   26.5670000  
O 18.2140000   17.9150000   26.3330000  
O 13.4870000   17.3830000   20.2470000  
O 11.3320000   16.7090000   21.9780000  
H 14.1310000   16.8740000   26.4820000  
H 15.6760000   16.9370000   27.6610000  
H 17.2170000   18.2320000   23.8120000  
H 14.1910000   17.8390000   19.7780000  
H 11.4720000   17.0980000   21.1080000  
C 16.1130000   18.1560000   21.1730000  
C 17.3170000   17.4480000   21.0380000  
C 18.2670000   17.7610000   20.0860000  
C 18.1810000   18.9000000   19.2880000  
C 17.0520000   19.7160000   19.4380000  
C 15.9450000   19.2700000   20.2980000  
C 17.8500000   16.2620000   21.6430000  
C 19.1700000   16.1210000   21.2420000  
N 19.4200000   17.0200000   20.2250000  
O 19.9260000   14.2230000   22.6580000  
C 20.2120000   15.0470000   21.6640000  
O 21.3010000   14.9610000   21.0970000  
O 16.9050000   20.8720000   18.6590000  
O 14.8870000   20.0470000   20.4540000  
H 17.3350000   15.5280000   22.3340000  
H 19.0510000   14.6180000   22.9920000  
H 20.2140000   17.1280000   19.6340000  
H 17.7950000   21.0680000   18.1930000  
H 15.1460000   20.9150000   19.9660000  
C 19.2910000   19.2870000   18.3550000  
C 19.7990000   18.4470000   17.2970000  
C 20.7140000   18.8840000   16.4310000  
C 21.3970000   20.0470000   16.5890000  
C 21.0860000   20.8970000   17.6220000  
C 19.9820000   20.5160000   18.4660000  
C 19.3890000   17.1180000   16.7980000  
C 20.2410000   16.8580000   15.7510000  
N 21.0780000   17.9030000   15.5500000  
O 19.4710000   14.6210000   15.5030000  
C 20.3150000   15.5540000   15.0360000  
O 20.9960000   15.2320000   14.0540000  
O 21.7160000   22.0500000   17.7630000  
O 19.5830000   21.5270000   19.3500000  
H 18.8050000   16.4490000   17.3570000  
H 18.9610000   15.1550000   16.1390000  
H 21.8290000   17.9550000   14.8730000  
H 22.4500000   22.0610000   17.2110000  
H 20.3050000   22.1460000   19.3670000  
H 22.0840000   20.3310000   15.8470000  
