76
100 
C 17.8400000   16.4430000   28.8840000  
C 16.5660000   16.0980000   29.5940000  
C 15.3980000   15.9980000   28.9050000  
C 15.2460000   16.2380000   27.5460000  
C 16.4470000   16.5630000   26.8360000  
C 17.6380000   16.7710000   27.4610000  
C 14.1500000   15.6490000   29.3680000  
C 13.3500000   15.6320000   28.2300000  
N 14.0270000   16.1390000   27.1200000  
O 11.4490000   14.8730000   29.4560000  
C 11.8780000   15.3440000   28.2080000  
O 11.1870000   15.4160000   27.2540000  
O 18.6860000   17.2190000   26.8000000  
O 18.8780000   16.5100000   29.5350000  
H 16.7120000   15.9970000   30.6670000  
H 13.8250000   15.4460000   30.4210000  
H 12.2420000   14.8980000   30.0340000  
H 18.2570000   17.4940000   26.0030000  
C 16.3020000   16.8270000   25.3540000  
C 16.4390000   18.1330000   24.7680000  
C 16.2000000   18.2810000   23.3920000  
C 15.8450000   17.2630000   22.5090000  
C 15.8570000   15.9730000   23.1040000  
C 15.9840000   15.7530000   24.4880000  
C 16.6330000   19.4090000   25.3770000  
C 16.3990000   20.3280000   24.3090000  
N 16.1800000   19.5520000   23.0500000  
O 16.5160000   22.2200000   25.6720000  
C 16.3590000   21.7780000   24.4400000  
O 16.1920000   22.5230000   23.5020000  
O 15.6050000   14.8940000   22.2720000  
O 15.8890000   14.4990000   25.0920000  
H 16.7250000   19.5910000   26.4330000  
H 16.4000000   21.4380000   26.2310000  
H 15.9360000   19.8910000   22.1490000  
H 15.4180000   15.1350000   21.3570000  
H 15.6800000   13.9480000   24.3080000  
C 15.6200000   17.4990000   21.0940000  
C 16.5600000   18.1750000   20.2830000  
C 16.2570000   18.5610000   19.0060000  
C 15.0710000   18.1450000   18.3590000  
C 14.0800000   17.4730000   19.1710000  
C 14.3360000   17.2700000   20.5280000  
C 17.9270000   18.6120000   20.5600000  
C 18.3540000   19.2570000   19.4140000  
N 17.3400000   19.1750000   18.4550000  
O 20.5170000   19.8340000   20.2240000  
C 19.6220000   19.9300000   19.2320000  
O 19.9310000   20.5600000   18.1990000  
O 12.9560000   17.0750000   18.5550000  
O 13.3070000   16.8430000   21.3800000  
H 18.4710000   18.5230000   21.4660000  
H 19.9850000   19.3440000   20.7830000  
H 17.4380000   19.3900000   17.4910000  
H 12.9380000   17.6520000   17.7140000  
H 12.5090000   16.5780000   20.8510000  
C 14.8550000   18.3760000   16.8520000  
C 15.4340000   17.5870000   15.8240000  
C 15.2780000   17.9750000   14.5190000  
C 14.3600000   18.9660000   14.0960000  
C 13.5760000   19.6240000   15.1030000  
C 13.8740000   19.3110000   16.4510000  
C 16.4480000   16.6110000   15.8290000  
C 16.7800000   16.3490000   14.5140000  
N 16.0870000   17.1550000   13.6400000  
O 18.4110000   14.6220000   14.9010000  
C 17.7620000   15.3610000   13.9770000  
O 17.9120000   15.2040000   12.7800000  
O 12.7040000   20.6100000   14.7220000  
O 13.1570000   19.9870000   17.3570000  
H 16.8000000   16.0890000   16.7120000  
H 18.0780000   15.0250000   15.7770000  
H 16.2370000   17.2000000   12.6800000  
H 12.9400000   20.8550000   13.8130000  
H 12.7520000   20.7550000   16.8410000  
H 14.2090000   19.1620000   13.0520000  
