76
100 
C 19.2950000   12.9380000   25.7600000  
C 18.4900000   12.4640000   26.8780000  
C 17.1510000   12.6990000   26.9100000  
C 16.4290000   13.4070000   25.8770000  
C 17.2000000   13.9700000   24.8650000  
C 18.5640000   13.7630000   24.8040000  
C 16.1340000   12.4550000   27.9110000  
C 14.9520000   12.9670000   27.3750000  
N 15.1370000   13.5760000   26.1050000  
O 13.7640000   12.2700000   29.3780000  
C 13.7060000   12.7930000   28.1350000  
O 12.5980000   13.1300000   27.8170000  
O 19.3890000   14.3630000   23.8430000  
O 20.4720000   12.6190000   25.7520000  
H 18.9890000   11.9280000   27.6340000  
H 16.3900000   12.0030000   28.9130000  
H 14.7040000   12.2460000   29.5160000  
H 18.7540000   14.7260000   23.2310000  
C 16.5720000   14.8850000   23.8960000  
C 16.1500000   16.0940000   24.3470000  
C 15.9450000   17.1610000   23.4850000  
C 15.9760000   17.0810000   22.0750000  
C 16.2600000   15.7550000   21.6060000  
C 16.5530000   14.6970000   22.4720000  
C 15.8460000   16.5470000   25.6460000  
C 15.3420000   17.8320000   25.5640000  
N 15.3810000   18.2010000   24.1690000  
O 15.1370000   18.2090000   27.9350000  
C 15.0690000   18.8070000   26.6810000  
O 14.8190000   19.9770000   26.5340000  
O 16.3500000   15.5920000   20.2380000  
O 16.9990000   13.4650000   21.9850000  
H 16.0090000   16.1160000   26.6200000  
H 15.0920000   17.2730000   27.7380000  
H 15.1910000   19.1300000   23.7750000  
H 16.2090000   16.4570000   19.7670000  
H 17.0330000   13.3800000   20.9820000  
C 15.7840000   18.2220000   21.1280000  
C 16.7820000   18.6670000   20.2960000  
C 16.5490000   19.6490000   19.3690000  
C 15.3220000   20.3170000   19.2230000  
C 14.2750000   19.8530000   20.0180000  
C 14.5130000   18.8330000   20.9850000  
C 18.1550000   18.2710000   20.1440000  
C 18.7140000   19.2060000   19.3420000  
N 17.7230000   20.0620000   18.8060000  
O 20.9990000   18.5890000   19.6510000  
C 20.0990000   19.3460000   18.9200000  
O 20.4910000   20.0420000   18.0510000  
O 12.9630000   20.4230000   20.0980000  
O 13.4850000   18.4930000   21.8330000  
H 18.5760000   17.4920000   20.6750000  
H 20.4280000   18.3510000   20.3830000  
H 17.8470000   20.7450000   18.0630000  
H 12.7860000   21.1530000   19.4300000  
H 12.8420000   19.1870000   21.6750000  
C 15.0280000   21.3640000   18.1580000  
C 14.2130000   21.0760000   17.1110000  
C 13.9260000   22.0500000   16.2000000  
C 14.5560000   23.3160000   16.1590000  
C 15.3450000   23.6100000   17.2650000  
C 15.6020000   22.6740000   18.2440000  
C 13.6470000   19.8220000   16.6390000  
C 12.9580000   20.1170000   15.4590000  
N 13.1210000   21.5230000   15.1890000  
O 11.9800000   18.0140000   15.1740000  
C 12.1060000   19.2430000   14.7000000  
O 11.5240000   19.5320000   13.6440000  
O 15.8810000   24.8700000   17.3770000  
O 16.3770000   22.9620000   19.2970000  
H 13.5380000   18.8310000   17.1130000  
H 12.4810000   18.0950000   16.0240000  
H 12.6660000   22.0260000   14.4100000  
H 16.2530000   25.0400000   18.2530000  
H 16.3890000   22.2030000   19.8410000  
H 14.3750000   24.0660000   15.4230000  
