76
100 
C 13.5660000   11.6350000   24.3630000  
C 14.2710000   11.0760000   25.4940000  
C 15.4300000   11.7090000   25.9910000  
C 15.9040000   12.9040000   25.5460000  
C 15.1590000   13.5310000   24.5010000  
C 14.0760000   12.9170000   23.8580000  
C 16.3700000   11.3480000   26.9860000  
C 17.2820000   12.3880000   27.1340000  
N 16.9370000   13.4010000   26.2240000  
O 18.7250000   11.0900000   28.4360000  
C 18.5190000   12.3170000   28.0170000  
O 19.3560000   13.1920000   28.2730000  
O 13.3970000   13.4680000   22.8420000  
O 12.5040000   11.1430000   23.9830000  
H 13.9480000   10.1810000   25.9700000  
H 16.4190000   10.3780000   27.6130000  
H 17.9540000   10.5380000   28.2680000  
H 13.9610000   14.1820000   22.5740000  
C 15.4730000   14.9010000   24.0500000  
C 16.4710000   14.9710000   23.1080000  
C 16.6190000   16.1690000   22.4450000  
C 15.8370000   17.3110000   22.5750000  
C 14.7410000   17.1680000   23.4840000  
C 14.6340000   16.0450000   24.3280000  
C 17.5310000   14.1020000   22.6720000  
C 18.2850000   14.8000000   21.7600000  
N 17.6820000   16.0550000   21.5460000  
O 19.8080000   13.1110000   21.1900000  
C 19.3930000   14.3260000   20.9470000  
O 19.8500000   14.9720000   20.0010000  
O 13.8640000   18.2550000   23.6040000  
O 13.6480000   15.9210000   25.3050000  
H 17.7180000   13.1520000   23.1200000  
H 19.1430000   12.7450000   21.8060000  
H 18.0940000   16.8290000   21.0010000  
H 14.0010000   18.8060000   22.8380000  
H 13.0980000   16.7100000   25.1710000  
C 16.0290000   18.4760000   21.7270000  
C 15.5170000   18.5530000   20.4580000  
C 15.6760000   19.6730000   19.6200000  
C 16.2530000   20.8700000   19.9820000  
C 16.7610000   20.8270000   21.3180000  
C 16.5780000   19.6810000   22.1320000  
C 14.7690000   17.6020000   19.6570000  
C 14.6100000   18.1460000   18.3570000  
N 15.1920000   19.4100000   18.3710000  
O 13.3870000   16.3750000   17.2660000  
C 13.9070000   17.6030000   17.1680000  
O 13.8140000   18.1920000   16.1550000  
O 17.4250000   21.9310000   21.7920000  
O 17.0390000   19.8020000   23.3760000  
H 14.4030000   16.6180000   19.9560000  
H 13.8880000   15.9170000   17.9430000  
H 15.3870000   19.9100000   17.5200000  
H 17.3020000   22.8070000   21.2830000  
H 17.0280000   20.6620000   23.6970000  
C 16.4410000   22.0280000   19.0340000  
C 15.6100000   23.0980000   19.2260000  
C 15.6680000   24.1290000   18.3390000  
C 16.6020000   24.1480000   17.2420000  
C 17.4140000   22.9740000   16.9970000  
C 17.3300000   21.9440000   17.9400000  
C 14.4590000   23.3170000   20.0920000  
C 13.8090000   24.4710000   19.5630000  
N 14.6310000   24.9940000   18.5410000  
O 12.0000000   24.5690000   21.0850000  
C 12.5030000   25.1380000   19.9530000  
O 12.1100000   26.1090000   19.3850000  
O 18.2890000   23.0060000   16.0010000  
O 18.0870000   20.7910000   17.7110000  
H 14.2280000   22.7940000   21.0220000  
H 12.5820000   23.7250000   21.1030000  
H 14.4990000   25.8770000   18.0130000  
H 18.9390000   22.2790000   15.9390000  
H 17.8080000   20.2700000   18.4780000  
H 16.3870000   24.9040000   16.5110000  
