76
100 
C 10.4220000   19.1420000   26.4460000  
C 10.8000000   18.8880000   27.8690000  
C 12.1170000   18.6070000   28.1500000  
C 13.1530000   18.3800000   27.2020000  
C 12.8240000   18.5000000   25.8190000  
C 11.4540000   18.8830000   25.4440000  
C 12.7820000   18.4790000   29.3800000  
C 14.1030000   18.1970000   29.1000000  
N 14.2920000   18.0630000   27.6960000  
O 14.8830000   18.3290000   31.3340000  
C 15.2410000   18.0700000   30.0170000  
O 16.3480000   17.6660000   29.7040000  
O 11.0050000   19.0170000   24.1840000  
O  9.2890000   19.4790000   26.1710000  
H 10.0730000   18.9600000   28.6130000  
H 12.2860000   18.5050000   30.3880000  
H 14.0400000   18.6890000   31.1930000  
H 11.8170000   19.2840000   23.7200000  
C 13.8320000   18.3240000   24.7220000  
C 13.7480000   17.2110000   23.9380000  
C 14.6860000   17.0370000   22.9440000  
C 15.6880000   17.9610000   22.6760000  
C 15.8030000   19.0740000   23.4960000  
C 14.8970000   19.2320000   24.5990000  
C 12.9290000   16.0220000   23.9110000  
C 13.5500000   15.1940000   22.9610000  
N 14.5180000   15.9020000   22.2710000  
O 12.2990000   13.2050000   23.6030000  
C 13.0780000   13.7950000   22.6580000  
O 13.5050000   13.2140000   21.6020000  
O 16.7750000   20.0250000   23.3250000  
O 14.8800000   20.3690000   25.4080000  
H 12.1380000   15.8400000   24.5990000  
H 12.2570000   13.9600000   24.2110000  
H 15.0560000   15.7140000   21.4580000  
H 17.4770000   19.5470000   22.8600000  
H 15.5280000   21.0160000   25.0400000  
C 16.7090000   17.7600000   21.5490000  
C 16.2650000   17.7860000   20.2250000  
C 17.0810000   17.5260000   19.1150000  
C 18.4730000   17.3520000   19.2450000  
C 18.9700000   17.4360000   20.6230000  
C 18.1080000   17.5930000   21.7220000  
C 14.9070000   17.8190000   19.6300000  
C 14.9940000   17.4200000   18.2730000  
N 16.3450000   17.1730000   17.9870000  
O 12.7040000   18.0020000   17.6710000  
C 13.8470000   17.3330000   17.3400000  
O 13.9010000   16.7230000   16.2600000  
O 20.3100000   17.2060000   20.7390000  
O 18.6020000   17.4460000   22.9830000  
H 13.9600000   18.0870000   20.0690000  
H 12.8130000   18.3930000   18.5190000  
H 16.6560000   16.8240000   17.0730000  
H 20.6090000   16.8470000   19.8380000  
H 19.5320000   17.2270000   22.9070000  
C 19.2610000   16.9860000   18.0330000  
C 19.4060000   17.8220000   16.9070000  
C 20.0880000   17.4280000   15.8130000  
C 20.8030000   16.2310000   15.7220000  
C 20.7340000   15.3750000   16.8400000  
C 19.9330000   15.7500000   17.9920000  
C 18.8420000   19.1260000   16.6530000  
C 19.2670000   19.4490000   15.3830000  
N 20.0590000   18.4080000   14.8450000  
O 18.1250000   21.4570000   15.2190000  
C 19.0000000   20.6240000   14.6160000  
O 19.4590000   20.8470000   13.4980000  
O 21.4750000   14.2260000   16.8540000  
O 19.8340000   14.7920000   18.9410000  
H 18.4360000   19.7650000   17.4590000  
H 18.0210000   21.1150000   16.1250000  
H 20.4560000   18.3930000   13.9130000  
H 21.9800000   14.0860000   16.0620000  
H 20.4000000   14.0730000   18.5980000  
H 21.3870000   16.0030000   14.8100000  
