76
100 
C 10.8320000   16.4420000   27.2230000  
C  9.8020000   15.5410000   26.7230000  
C  9.9170000   15.0670000   25.4380000  
C 11.0230000   15.3270000   24.5940000  
C 12.0090000   16.2290000   25.0290000  
C 11.9890000   16.6920000   26.3490000  
C  9.0860000   14.1400000   24.8100000  
C  9.7160000   13.9070000   23.5410000  
N 10.9250000   14.7080000   23.4280000  
O  8.0900000   12.3260000   22.8510000  
C  9.1960000   12.9940000   22.4950000  
O  9.7710000   12.6780000   21.5080000  
O 12.9720000   17.4290000   26.8300000  
O 10.7910000   17.0330000   28.3170000  
H  8.9130000   15.2920000   27.4040000  
H  8.1770000   13.7440000   25.1080000  
H  7.8220000   12.7690000   23.6770000  
H 13.7980000   17.4220000   26.2130000  
C 13.1970000   16.4690000   24.1370000  
C 13.0600000   17.1960000   22.9190000  
C 14.1260000   17.3310000   22.0840000  
C 15.4590000   16.8080000   22.3450000  
C 15.5880000   16.1230000   23.5400000  
C 14.4850000   15.9890000   24.4980000  
C 11.9630000   17.8230000   22.1750000  
C 12.5030000   18.4070000   21.0650000  
N 13.8870000   18.1680000   21.0410000  
O 10.5610000   19.7340000   20.5290000  
C 11.8120000   19.3350000   20.0960000  
O 12.3130000   19.7480000   19.0440000  
O 16.8070000   15.6490000   23.9500000  
O 14.7290000   15.2390000   25.5190000  
H 10.9710000   17.9710000   22.5790000  
H 10.4000000   19.2790000   21.3670000  
H 14.5020000   18.6130000   20.3450000  
H 17.1800000   15.2340000   23.1430000  
H 15.6520000   14.9240000   25.5020000  
C 16.6330000   17.1410000   21.5040000  
C 16.9730000   18.4840000   21.2620000  
C 17.9980000   18.8110000   20.3940000  
C 18.8780000   17.8360000   19.8350000  
C 18.5440000   16.4790000   19.9970000  
C 17.3800000   16.1460000   20.7990000  
C 16.4340000   19.7970000   21.6660000  
C 17.2560000   20.7640000   21.0980000  
N 18.2880000   20.1380000   20.3330000  
O 16.3090000   22.6230000   22.1090000  
C 17.2980000   22.1490000   21.3270000  
O 18.1190000   22.8830000   20.8280000  
O 19.2230000   15.5230000   19.3980000  
O 17.1210000   14.8130000   21.0310000  
H 15.7040000   20.0570000   22.3960000  
H 15.8800000   21.7810000   22.3470000  
H 18.8640000   20.5510000   19.6410000  
H 20.0780000   15.9070000   19.0940000  
H 17.4430000   14.2420000   20.3460000  
C 19.8730000   18.3510000   18.8070000  
C 21.0300000   19.1230000   19.1800000  
C 21.8880000   19.5920000   18.2010000  
C 21.6410000   19.4520000   16.8170000  
C 20.5930000   18.6760000   16.4190000  
C 19.7220000   18.1270000   17.3990000  
C 21.7330000   19.1690000   20.4620000  
C 22.8600000   19.9230000   20.2150000  
N 22.9270000   20.2310000   18.8460000  
O 23.3750000   20.1230000   22.5640000  
C 23.7940000   20.3460000   21.2780000  
O 24.9100000   20.8560000   21.1130000  
O 20.3100000   18.7050000   15.0850000  
O 18.5490000   17.6010000   16.8870000  
H 21.3160000   18.9150000   21.4040000  
H 22.5150000   19.7870000   22.4290000  
H 23.6860000   20.8070000   18.4100000  
H 19.6770000   17.9720000   14.9570000  
H 17.8620000   17.4900000   17.5840000  
H 22.2930000   19.9200000   16.0140000  
