76
100 
C 14.8970000   10.5040000   23.1600000  
C 13.4140000   10.2130000   23.0180000  
C 12.5740000   11.1260000   22.5420000  
C 13.0390000   12.4480000   22.1720000  
C 14.4680000   12.7500000   22.1620000  
C 15.3550000   11.8620000   22.8180000  
C 11.1920000   11.1320000   22.4170000  
C 10.8870000   12.4090000   21.9010000  
N 12.0310000   13.1530000   21.7320000  
O  8.6030000   12.0210000   21.4900000  
C  9.5600000   13.0070000   21.5130000  
O  9.3820000   14.1260000   21.2660000  
O 16.6420000   12.2270000   23.1240000  
O 15.5800000    9.5590000   23.5210000  
H 13.0730000    9.2540000   23.3980000  
H 10.5010000   10.3740000   22.6910000  
H  9.0190000   11.1540000   21.6510000  
H 16.8610000   13.1370000   22.7110000  
C 14.8520000   14.1270000   21.8810000  
C 15.1610000   14.9360000   22.9380000  
C 15.4940000   16.2550000   22.8110000  
C 15.5170000   16.8560000   21.5530000  
C 15.2500000   16.0550000   20.3870000  
C 14.9480000   14.6610000   20.5290000  
C 14.9210000   14.7150000   24.3770000  
C 15.1470000   15.9680000   24.9810000  
N 15.4450000   16.8910000   24.0450000  
O 14.3780000   15.2960000   27.0470000  
C 14.8200000   16.3550000   26.3480000  
O 14.8040000   17.4600000   26.8180000  
O 15.4530000   16.6510000   19.1580000  
O 14.7570000   13.8240000   19.4460000  
H 14.6900000   13.8020000   24.8420000  
H 14.5870000   14.5430000   26.4750000  
H 15.6970000   17.9000000   24.2760000  
H 15.7500000   17.5440000   19.3590000  
H 15.0370000   14.4390000   18.7610000  
C 15.8060000   18.3460000   21.4550000  
C 17.0310000   18.9030000   21.9240000  
C 17.3190000   20.2630000   21.7910000  
C 16.4270000   21.1900000   21.1810000  
C 15.1430000   20.6690000   20.7960000  
C 14.8190000   19.2560000   20.9620000  
C 18.2270000   18.3820000   22.5940000  
C 19.1320000   19.4170000   22.7310000  
N 18.5310000   20.5320000   22.1830000  
O 20.7290000   18.0520000   23.7190000  
C 20.4730000   19.3580000   23.3440000  
O 21.2620000   20.2600000   23.5040000  
O 14.1200000   21.4550000   20.4310000  
O 13.5880000   18.6820000   20.6910000  
H 18.3760000   17.3520000   22.8300000  
H 19.8530000   17.6290000   23.6180000  
H 19.0300000   21.4320000   22.0630000  
H 14.5230000   22.3070000   20.3870000  
H 12.8370000   19.3540000   20.8220000  
C 16.9000000   22.5150000   20.7870000  
C 17.9890000   22.6960000   19.9300000  
C 18.4200000   23.9660000   19.5630000  
C 17.8840000   25.1300000   20.1650000  
C 16.7990000   24.9920000   21.0190000  
C 16.2560000   23.6950000   21.2060000  
C 18.8080000   21.8540000   19.2140000  
C 19.6680000   22.5670000   18.3890000  
N 19.5110000   23.9440000   18.6850000  
O 20.5590000   20.6220000   17.2480000  
C 20.5600000   21.9690000   17.3460000  
O 21.2540000   22.5650000   16.6130000  
O 16.3580000   26.2160000   21.5530000  
O 15.0930000   23.5270000   21.9220000  
H 18.7050000   20.7750000   19.1980000  
H 20.0980000   20.2970000   18.0270000  
H 19.9380000   24.7690000   18.2280000  
H 15.6040000   26.0480000   22.0830000  
H 15.2800000   22.8690000   22.5600000  
H 18.2110000   26.1590000   19.9340000  
