76
100 
C 11.3800000   16.0310000   27.5020000  
C 10.1360000   15.4120000   26.8950000  
C 10.1030000   15.1510000   25.5250000  
C 11.2190000   15.2730000   24.6660000  
C 12.4140000   15.9350000   25.1800000  
C 12.4790000   16.2710000   26.5720000  
C  9.1100000   14.5320000   24.7550000  
C  9.5840000   14.4330000   23.4230000  
N 10.9510000   14.9410000   23.3760000  
O  7.6090000   13.5940000   22.6060000  
C  8.8100000   14.0330000   22.2070000  
O  9.1990000   14.0400000   21.0550000  
O 13.5050000   16.9000000   27.1490000  
O 11.3370000   16.3180000   28.6950000  
H  9.3150000   15.2430000   27.5780000  
H  8.1350000   14.3450000   25.1260000  
H  7.5190000   13.9490000   23.5220000  
H 14.2740000   16.7380000   26.4980000  
C 13.4780000   16.3520000   24.2580000  
C 13.2790000   17.3850000   23.2790000  
C 14.2230000   17.6230000   22.3100000  
C 15.3780000   16.8750000   22.1460000  
C 15.6150000   15.8550000   23.0850000  
C 14.6380000   15.5570000   24.1000000  
C 12.2160000   18.3060000   23.0820000  
C 12.5900000   19.2230000   22.1230000  
N 13.8050000   18.7500000   21.6300000  
O 10.5270000   20.5610000   22.2130000  
C 11.7320000   20.4390000   21.6420000  
O 12.0880000   21.1680000   20.7090000  
O 16.6790000   15.0090000   23.0820000  
O 14.8910000   14.5410000   24.9950000  
H 11.2730000   18.3330000   23.6590000  
H 10.3930000   19.7010000   22.6670000  
H 14.3170000   19.2230000   20.8690000  
H 17.3040000   15.3690000   22.3620000  
H 15.7090000   14.1850000   24.7270000  
C 16.4120000   17.2200000   21.1240000  
C 17.0550000   18.5080000   21.1650000  
C 17.9540000   18.8550000   20.2000000  
C 18.4670000   18.0170000   19.1770000  
C 17.8210000   16.7530000   19.1320000  
C 16.7850000   16.3440000   19.9930000  
C 16.9590000   19.6210000   22.0650000  
C 17.8150000   20.5380000   21.5480000  
N 18.4100000   20.1800000   20.3480000  
O 17.4640000   21.9560000   23.3790000  
C 18.0350000   21.8630000   22.1500000  
O 18.5920000   22.7380000   21.6180000  
O 18.3710000   15.7890000   18.2380000  
O 16.2820000   15.0710000   19.8840000  
H 16.4010000   19.6590000   22.9740000  
H 17.1140000   21.0680000   23.6190000  
H 18.9800000   20.7650000   19.7740000  
H 19.1430000   16.1910000   17.7740000  
H 16.9010000   14.5400000   19.3650000  
C 19.5600000   18.4360000   18.2440000  
C 20.7960000   18.8040000   18.8020000  
C 21.8170000   19.1340000   17.9290000  
C 21.6970000   19.2570000   16.5720000  
C 20.4510000   18.9370000   16.0290000  
C 19.3880000   18.5350000   16.8300000  
C 21.3650000   18.7840000   20.1600000  
C 22.7050000   19.0840000   20.0210000  
N 22.9620000   19.3290000   18.6520000  
O 23.2230000   18.7960000   22.3230000  
C 23.7370000   19.0810000   21.1350000  
O 24.8900000   19.2500000   20.8500000  
O 20.3290000   18.8890000   14.6560000  
O 18.1560000   18.2290000   16.3510000  
H 20.8260000   18.4740000   21.0660000  
H 22.3760000   18.3720000   22.3030000  
H 23.8350000   19.2830000   18.1860000  
H 19.4980000   18.7450000   14.3220000  
H 17.5670000   18.1600000   17.1370000  
H 22.4810000   19.5640000   15.8920000  
