76
100 
C 13.6690000   11.2740000   25.0950000  
C 14.9560000   10.8740000   25.6950000  
C 16.0800000   11.6620000   25.5580000  
C 16.1260000   12.8020000   24.7320000  
C 14.8880000   13.2350000   24.1580000  
C 13.7040000   12.4560000   24.1890000  
C 17.3350000   11.6530000   26.2880000  
C 17.9640000   12.8180000   25.8130000  
N 17.2400000   13.5100000   24.8680000  
O 20.0210000   12.5240000   27.0250000  
C 19.3690000   13.1920000   26.1070000  
O 19.9100000   14.1580000   25.5720000  
O 12.4960000   12.8470000   23.7340000  
O 12.6830000   10.6870000   25.3610000  
H 15.0060000    9.9770000   26.3600000  
H 17.7890000   10.8820000   26.9000000  
H 19.3570000   11.9240000   27.4090000  
H 12.6730000   13.5940000   23.1980000  
C 14.9030000   14.4330000   23.3220000  
C 14.8980000   14.3870000   21.9180000  
C 15.0910000   15.5370000   21.2390000  
C 15.2080000   16.8140000   21.7320000  
C 15.2120000   16.8890000   23.1560000  
C 15.0260000   15.7380000   23.9690000  
C 14.8760000   13.2920000   21.0470000  
C 14.8310000   13.8380000   19.7740000  
N 15.1170000   15.2500000   19.9110000  
O 14.3600000   11.8230000   18.6610000  
C 14.5940000   13.1470000   18.4900000  
O 14.6410000   13.7090000   17.3850000  
O 15.6070000   18.0740000   23.8170000  
O 15.0830000   15.8550000   25.3270000  
H 14.4670000   12.3140000   21.2970000  
H 14.1950000   11.8090000   19.5980000  
H 15.2740000   15.8580000   19.1210000  
H 15.5060000   18.7760000   23.1580000  
H 15.5050000   16.7280000   25.4050000  
C 15.4840000   18.0580000   20.8500000  
C 14.5090000   19.1000000   20.8150000  
C 14.8380000   20.3050000   20.2840000  
C 16.0650000   20.5310000   19.5230000  
C 17.0240000   19.5030000   19.5290000  
C 16.7410000   18.3180000   20.2030000  
C 13.1880000   19.1300000   21.4090000  
C 12.7820000   20.4570000   21.1890000  
N 13.7880000   21.2030000   20.4560000  
O 10.5530000   20.1840000   22.1760000  
C 11.4670000   21.0360000   21.4970000  
O 11.2000000   22.2010000   21.3670000  
O 18.2810000   19.7600000   18.9300000  
O 17.7650000   17.4330000   20.3380000  
H 12.5920000   18.3200000   21.8810000  
H 11.1270000   19.5020000   22.5110000  
H 13.7480000   22.1920000   20.1620000  
H 18.4060000   20.7040000   18.8520000  
H 18.5720000   17.8090000   20.0170000  
C 16.4160000   21.9120000   19.0140000  
C 17.3130000   22.7810000   19.7320000  
C 17.6670000   23.9950000   19.2210000  
C 17.1580000   24.5110000   18.0120000  
C 16.3780000   23.6570000   17.2350000  
C 15.8660000   22.3890000   17.8050000  
C 18.0840000   22.6210000   20.9350000  
C 18.7660000   23.8110000   21.1600000  
N 18.5060000   24.6690000   20.0590000  
O 19.8860000   22.9220000   23.0940000  
C 19.7750000   24.0060000   22.2330000  
O 20.4690000   25.0250000   22.3860000  
O 15.8680000   24.0500000   16.0270000  
O 15.1370000   21.5790000   16.9390000  
H 18.1610000   21.7270000   21.4950000  
H 19.1390000   22.3190000   23.0550000  
H 18.9650000   25.5530000   19.9560000  
H 15.2630000   23.4030000   15.7600000  
H 14.9220000   20.8110000   17.4210000  
H 17.6510000   25.4110000   17.6400000  
