76
100 
C 10.1540000   15.2850000   25.8210000  
C  9.5630000   16.4180000   26.5500000  
C 10.0020000   17.6970000   26.4470000  
C 11.0950000   18.0600000   25.5900000  
C 11.7450000   16.9840000   24.7950000  
C 11.3060000   15.6480000   24.9270000  
C  9.6260000   18.8930000   27.1290000  
C 10.5280000   19.8610000   26.6590000  
N 11.3650000   19.3530000   25.6690000  
O  9.6230000   21.6250000   28.0950000  
C 10.5390000   21.3500000   27.0740000  
O 11.2860000   22.1750000   26.6490000  
O 11.6970000   14.7190000   24.0720000  
O  9.6300000   14.1950000   25.8470000  
H  8.6480000   16.1630000   27.1460000  
H  8.9800000   18.9420000   28.0040000  
H  9.1370000   20.7830000   28.2600000  
H 12.1640000   15.2350000   23.3870000  
C 12.8240000   17.3440000   23.9240000  
C 14.1010000   16.9150000   24.3060000  
C 15.1410000   17.1090000   23.4570000  
C 15.1500000   17.8040000   22.1870000  
C 13.8590000   18.2470000   21.8030000  
C 12.7220000   18.0210000   22.6930000  
C 14.5580000   16.3130000   25.5310000  
C 15.9340000   16.0900000   25.2420000  
N 16.2970000   16.6300000   23.9850000  
O 16.3080000   14.7330000   27.1550000  
C 16.8300000   15.3110000   26.0860000  
O 17.9930000   15.1980000   25.8170000  
O 13.5950000   18.8490000   20.5650000  
O 11.5160000   18.5270000   22.2190000  
H 13.9340000   16.1750000   26.4500000  
H 15.3660000   14.8610000   27.0410000  
H 17.1440000   16.4590000   23.5960000  
H 14.4560000   19.1940000   20.2160000  
H 11.5880000   19.2830000   21.6020000  
C 16.3640000   18.0620000   21.3710000  
C 17.2080000   17.1280000   20.7900000  
C 18.2190000   17.4490000   19.9560000  
C 18.5880000   18.7040000   19.5600000  
C 17.8010000   19.7490000   20.2630000  
C 16.7310000   19.3950000   21.0960000  
C 17.1780000   15.7140000   20.7250000  
C 18.2300000   15.2930000   19.9250000  
N 18.8510000   16.4150000   19.3910000  
O 17.9990000   12.9740000   20.2610000  
C 18.4920000   13.9010000   19.4620000  
O 19.0090000   13.6340000   18.3890000  
O 18.0430000   21.0480000   19.9560000  
O 16.1410000   20.4540000   21.7290000  
H 16.4400000   15.1500000   21.2340000  
H 17.6730000   13.2990000   21.1160000  
H 19.7780000   16.3980000   18.9080000  
H 18.6490000   21.0250000   19.1880000  
H 16.4330000   21.1960000   21.2850000  
C 19.7240000   19.0320000   18.6260000  
C 19.7100000   18.5820000   17.3160000  
C 20.6970000   18.8380000   16.3950000  
C 21.8430000   19.5340000   16.7140000  
C 21.8770000   20.0680000   18.0240000  
C 20.8550000   19.8290000   18.9650000  
C 18.7460000   17.6970000   16.6640000  
C 19.2490000   17.4970000   15.3820000  
N 20.4140000   18.2460000   15.1730000  
O 17.4340000   16.1460000   14.4830000  
C 18.6480000   16.6160000   14.2960000  
O 19.1670000   16.4340000   13.1860000  
O 22.9790000   20.7530000   18.4610000  
O 20.9740000   20.3100000   20.2670000  
H 17.8400000   17.2980000   17.0810000  
H 17.1990000   16.1700000   15.4020000  
H 20.9600000   18.3190000   14.2840000  
H 23.7620000   20.4880000   17.8950000  
H 21.7780000   20.8850000   20.1820000  
H 22.5450000   19.7320000   15.9160000  
