76
100 
C 11.9280000   11.3710000   21.1840000  
C 10.8020000   11.4120000   22.0940000  
C 10.5620000   12.5270000   22.8910000  
C 11.3440000   13.6700000   22.8570000  
C 12.4270000   13.8060000   21.9670000  
C 12.6840000   12.6770000   21.1590000  
C  9.5400000   12.7550000   23.7770000  
C  9.7020000   14.0690000   24.1690000  
N 10.8900000   14.6180000   23.6260000  
O  7.6430000   14.1520000   25.4390000  
C  8.7760000   14.8130000   25.0600000  
O  8.9970000   15.9460000   25.3950000  
O 13.7890000   12.6420000   20.3590000  
O 12.3270000   10.4710000   20.5150000  
H 10.1040000   10.5920000   22.1290000  
H  8.7960000   12.1250000   24.1150000  
H  7.8030000   13.2160000   25.2460000  
H 14.2130000   13.5180000   20.5050000  
C 13.3140000   15.0230000   21.9290000  
C 14.6490000   14.8510000   22.3230000  
C 15.4950000   15.9300000   22.3180000  
C 15.2410000   17.1940000   21.8620000  
C 13.9420000   17.3250000   21.2120000  
C 12.9860000   16.3340000   21.4090000  
C 15.3450000   13.7090000   22.8640000  
C 16.6000000   14.1990000   23.1240000  
N 16.6920000   15.5860000   22.8830000  
O 17.6140000   11.9900000   23.5190000  
C 17.7280000   13.4050000   23.5460000  
O 18.7580000   13.8950000   23.9140000  
O 13.6460000   18.5260000   20.5810000  
O 11.7270000   16.6210000   21.0630000  
H 15.0330000   12.7480000   23.1030000  
H 16.7330000   11.8110000   23.2060000  
H 17.5850000   16.0320000   22.9230000  
H 14.1930000   19.2490000   20.8820000  
H 11.6760000   17.5990000   21.0620000  
C 16.1820000   18.3150000   21.9930000  
C 17.4740000   18.3310000   21.3880000  
C 18.2310000   19.4510000   21.4600000  
C 17.8820000   20.6280000   22.0750000  
C 16.6800000   20.5690000   22.8180000  
C 15.8000000   19.4990000   22.6920000  
C 18.1630000   17.3220000   20.6700000  
C 19.2680000   17.9980000   20.1140000  
N 19.3130000   19.2820000   20.6710000  
O 19.8660000   16.2290000   18.6470000  
C 20.1780000   17.5100000   19.0750000  
O 21.1800000   18.0830000   18.6260000  
O 16.3220000   21.7560000   23.4300000  
O 14.4600000   19.6540000   23.0970000  
H 17.7620000   16.3190000   20.5050000  
H 19.0840000   16.0140000   19.1760000  
H 20.0070000   20.0420000   20.5000000  
H 16.6840000   22.5250000   22.9090000  
H 14.5120000   19.9210000   23.9370000  
C 18.6980000   21.8630000   21.9570000  
C 18.9220000   22.5570000   20.7200000  
C 19.6740000   23.7460000   20.6060000  
C 20.2280000   24.3750000   21.7460000  
C 20.0840000   23.6530000   23.0280000  
C 19.3230000   22.4210000   23.1320000  
C 18.5000000   22.2640000   19.3940000  
C 18.9570000   23.2570000   18.5320000  
N 19.7200000   24.1600000   19.2850000  
O 18.2290000   22.1920000   16.5010000  
C 18.7240000   23.2790000   17.0820000  
O 19.0860000   24.2170000   16.3920000  
O 20.8080000   24.1220000   24.0610000  
O 19.3100000   21.7470000   24.3040000  
H 17.8230000   21.4710000   19.1100000  
H 17.9240000   21.6240000   17.1820000  
H 20.1300000   25.0240000   18.8790000  
H 20.6580000   23.5610000   24.8290000  
H 19.0460000   20.8060000   24.1150000  
H 20.8560000   25.2520000   21.6000000  
