76
100 
C 12.8090000   17.6580000   28.7100000  
C 11.5250000   16.9980000   28.4330000  
C 11.0510000   16.6960000   27.1990000  
C 11.8800000   16.9990000   26.0660000  
C 13.1920000   17.5720000   26.2460000  
C 13.6670000   17.9360000   27.5040000  
C  9.8790000   16.1720000   26.6950000  
C  9.9910000   16.2040000   25.3070000  
N 11.1750000   16.7590000   24.9650000  
O  7.9260000   15.1830000   24.8770000  
C  8.9760000   15.8750000   24.3530000  
O  8.9900000   16.2410000   23.2060000  
O 14.9610000   18.2140000   27.7340000  
O 13.1250000   18.0960000   29.8250000  
H 10.9960000   16.6510000   29.3340000  
H  9.0670000   15.8130000   27.3160000  
H  8.0690000   15.1060000   25.8030000  
H 15.3650000   18.5420000   26.8990000  
C 14.0260000   17.6160000   25.0390000  
C 14.4070000   18.7900000   24.3920000  
C 15.1400000   18.7720000   23.2630000  
C 15.6200000   17.6050000   22.6800000  
C 15.2140000   16.4150000   23.2400000  
C 14.3800000   16.3880000   24.3640000  
C 14.1740000   20.2080000   24.6670000  
C 14.6920000   20.9430000   23.5590000  
N 15.1380000   20.0230000   22.5850000  
O 14.6280000   23.1090000   24.6630000  
C 14.9300000   22.4710000   23.5620000  
O 15.4750000   23.1520000   22.7720000  
O 15.5580000   15.2750000   22.5670000  
O 14.1250000   15.2180000   24.9840000  
H 13.6430000   20.5520000   25.4970000  
H 14.0450000   22.5730000   25.2210000  
H 15.4360000   20.3240000   21.7510000  
H 16.2790000   15.5330000   21.9320000  
H 14.6450000   14.5600000   24.5160000  
C 16.3610000   17.6650000   21.3810000  
C 17.6890000   17.3210000   21.3930000  
C 18.4090000   17.3800000   20.2810000  
C 17.9440000   17.7280000   18.9850000  
C 16.5130000   17.8900000   18.9570000  
C 15.7400000   17.9470000   20.1370000  
C 18.5620000   17.0210000   22.4710000  
C 19.8400000   16.9130000   21.9590000  
N 19.7070000   17.1290000   20.5970000  
O 21.0230000   16.2180000   23.9350000  
C 21.1570000   16.6190000   22.6610000  
O 22.2790000   16.6840000   22.1880000  
O 15.8600000   17.9490000   17.7530000  
O 14.4160000   18.1260000   20.0530000  
H 18.2870000   16.9990000   23.5030000  
H 20.1120000   16.5190000   24.1740000  
H 20.5210000   17.3460000   20.0200000  
H 16.5320000   17.8760000   16.9920000  
H 14.1980000   18.3990000   19.1490000  
C 18.8280000   17.9540000   17.7970000  
C 18.6610000   17.2610000   16.5640000  
C 19.4350000   17.5420000   15.4480000  
C 20.2940000   18.6840000   15.3640000  
C 20.4810000   19.3710000   16.5860000  
C 19.7000000   19.0980000   17.7260000  
C 17.8600000   16.1470000   16.0730000  
C 18.0340000   15.9840000   14.7170000  
N 18.9440000   16.9510000   14.3190000  
O 16.4520000   14.2040000   14.4970000  
C 17.3350000   15.0320000   13.8610000  
O 17.5500000   14.9410000   12.6660000  
O 21.2570000   20.4660000   16.6910000  
O 19.7400000   19.9310000   18.7860000  
H 17.2730000   15.5090000   16.7670000  
H 16.6070000   14.3770000   15.4390000  
H 19.2640000   17.0600000   13.3680000  
H 21.1850000   20.7920000   17.5590000  
H 19.3900000   19.5940000   19.6430000  
H 20.8070000   18.9810000   14.4390000  
