76
100 
C 19.4610000   14.2460000   26.9110000  
C 18.6880000   13.1430000   27.4870000  
C 17.4090000   12.9530000   27.0720000  
C 16.7520000   13.7520000   26.1050000  
C 17.4270000   14.7850000   25.4360000  
C 18.7590000   15.0590000   25.8590000  
C 16.4620000   12.0270000   27.4290000  
C 15.3300000   12.2070000   26.6520000  
N 15.5470000   13.3050000   25.8060000  
O 14.3310000   10.2320000   27.5330000  
C 14.1210000   11.2910000   26.7130000  
O 13.0400000   11.4460000   26.1600000  
O 19.4750000   16.0020000   25.2050000  
O 20.6170000   14.5280000   27.3460000  
H 19.1970000   12.6100000   28.3120000  
H 16.5340000   11.2190000   28.0990000  
H 15.2180000   10.2630000   27.8800000  
H 18.7870000   16.5730000   24.7380000  
C 16.6930000   15.4630000   24.3800000  
C 16.1390000   16.6600000   24.6880000  
C 15.6940000   17.4540000   23.7220000  
C 15.6950000   17.1690000   22.3450000  
C 16.1510000   15.8750000   22.0040000  
C 16.5880000   14.9700000   23.0370000  
C 16.1390000   17.4100000   25.8770000  
C 15.5830000   18.6600000   25.5690000  
N 15.3050000   18.6850000   24.1730000  
O 15.3040000   19.4150000   27.8510000  
C 15.1980000   19.7290000   26.6070000  
O 14.7600000   20.7790000   26.2410000  
O 16.2590000   15.4440000   20.7080000  
O 17.2160000   13.7690000   22.6790000  
H 16.2470000   17.0100000   26.8410000  
H 15.7980000   18.5960000   27.7670000  
H 14.9620000   19.4660000   23.5690000  
H 16.1270000   16.1820000   20.0730000  
H 16.9490000   13.7650000   21.7200000  
C 15.2930000   18.1790000   21.2880000  
C 16.1670000   19.2320000   20.9180000  
C 15.9660000   19.8720000   19.7130000  
C 14.8610000   19.7120000   18.8580000  
C 13.9410000   18.7420000   19.3270000  
C 14.1500000   17.9730000   20.4700000  
C 17.2680000   19.8720000   21.6530000  
C 17.6660000   20.8450000   20.7460000  
N 16.8090000   20.9220000   19.6820000  
O 19.2860000   21.8240000   22.2480000  
C 18.8110000   21.7690000   20.9960000  
O 19.2140000   22.5640000   20.1070000  
O 12.8570000   18.4340000   18.5870000  
O 13.3110000   16.9880000   20.7250000  
H 17.6850000   19.5590000   22.6060000  
H 18.7350000   21.2670000   22.6940000  
H 16.8880000   21.5260000   18.8740000  
H 12.9570000   18.9380000   17.7810000  
H 12.8310000   16.8170000   19.9120000  
C 14.6470000   20.6110000   17.7360000  
C 14.6020000   20.0480000   16.4410000  
C 14.4460000   20.8620000   15.3120000  
C 14.3720000   22.2290000   15.4040000  
C 14.4010000   22.8280000   16.6890000  
C 14.6160000   22.0610000   17.8300000  
C 14.6560000   18.6740000   15.9140000  
C 14.4100000   18.7700000   14.5170000  
N 14.2880000   20.1200000   14.1210000  
O 14.3770000   16.4460000   14.2710000  
C 14.2480000   17.6170000   13.5910000  
O 13.9730000   17.7110000   12.3870000  
O 14.3340000   24.2030000   16.7750000  
O 14.7370000   22.6080000   19.0800000  
H 14.7150000   17.7650000   16.4890000  
H 14.5220000   16.8150000   15.1560000  
H 13.8140000   20.4820000   13.3010000  
H 14.0350000   24.3050000   17.6740000  
H 14.9490000   21.8930000   19.7710000  
H 14.3920000   22.9140000   14.5060000  
