76
101 
C 13.7590000   17.6530000   27.3910000  
C 13.6450000   18.9170000   28.1760000  
C 14.2990000   20.0130000   27.7610000  
C 15.1760000   20.0420000   26.7010000  
C 15.5250000   18.8390000   26.0060000  
C 14.8070000   17.7290000   26.2860000  
C 14.2860000   21.3170000   28.2840000  
C 15.0970000   22.0640000   27.4280000  
N 15.6940000   21.2190000   26.4720000  
O 14.6110000   24.2300000   28.5020000  
C 15.3330000   23.5610000   27.5790000  
O 16.1280000   24.1420000   26.8470000  
O 14.9410000   16.5950000   25.5620000  
O 13.1830000   16.6210000   27.6900000  
H 12.8850000   18.8810000   28.9610000  
H 13.7650000   21.6970000   29.1040000  
H 13.9890000   23.5090000   28.9400000  
H 15.7230000   16.7490000   25.0850000  
C 16.4210000   18.8340000   24.8510000  
C 17.7160000   18.3930000   24.9330000  
C 18.3620000   18.2180000   23.7180000  
C 17.8580000   18.4570000   22.3810000  
C 16.4850000   18.8020000   22.3740000  
C 15.8210000   19.1290000   23.6200000  
C 18.4810000   17.6660000   25.8980000  
C 19.6210000   17.1350000   25.2650000  
N 19.5370000   17.5010000   23.8810000  
O 20.4810000   16.0740000   27.2030000  
C 20.6500000   16.2990000   25.8890000  
O 21.5220000   15.6870000   25.3050000  
O 15.7880000   19.0520000   21.2410000  
O 14.5420000   19.5610000   23.5540000  
H 18.3020000   17.4870000   26.9210000  
H 19.8950000   16.7900000   27.6440000  
H 20.1640000   17.2420000   23.1320000  
H 14.9240000   19.3740000   21.5800000  
H 14.1820000   19.6280000   24.5000000  
C 18.5880000   18.2470000   21.1170000  
C 18.9030000   16.9920000   20.6910000  
C 19.4410000   16.8070000   19.4730000  
C 19.9290000   17.7640000   18.5450000  
C 19.7710000   19.1080000   19.1000000  
C 19.0770000   19.3480000   20.2900000  
C 18.6470000   15.6810000   21.3230000  
C 19.1800000   14.7670000   20.4160000  
N 19.7170000   15.4810000   19.3040000  
O 18.5400000   12.9200000   21.6360000  
C 19.1780000   13.2830000   20.5200000  
O 19.7730000   12.5350000   19.7750000  
O 20.2160000   20.1220000   18.3200000  
O 18.9560000   20.6460000   20.7870000  
H 18.2310000   15.3630000   22.2620000  
H 18.2310000   13.7500000   22.0280000  
H 20.2710000   15.0850000   18.5500000  
H 20.8240000   19.6950000   17.6870000  
H 19.3980000   21.3350000   20.1520000  
C 20.5650000   17.4920000   17.2160000  
C 19.7200000   17.5640000   16.0920000  
C 20.2270000   17.3040000   14.8400000  
C 21.5400000   16.9750000   14.5940000  
C 22.4720000   17.1090000   15.6620000  
C 21.9560000   17.3900000   16.9720000  
C 18.3540000   17.8390000   15.9550000  
C 18.0120000   17.6590000   14.6020000  
N 19.2140000   17.3490000   13.9460000  
O 15.7670000   18.1250000   14.8040000  
C 16.7150000   17.8420000   13.9710000  
O 16.5300000   17.8470000   12.7780000  
O 23.7910000   16.7410000   15.5170000  
O 22.9020000   17.3930000   17.9690000  
H 17.6360000   18.1520000   16.7770000  
H 16.2220000   18.0510000   15.6720000  
H 19.3570000   17.3640000   12.9580000  
H 24.3070000   17.4590000   15.8180000  
H 22.4650000   17.4370000   18.8440000  
H 21.9210000   16.7900000   13.5820000  
