76
101 
C 13.5450000   11.9930000   22.7160000  
C 14.4560000   10.9880000   23.2150000  
C 15.8340000   11.1130000   23.1070000  
C 16.3660000   12.4080000   22.7810000  
C 15.5640000   13.4910000   22.5380000  
C 14.1720000   13.3060000   22.3800000  
C 16.9340000   10.2950000   23.4530000  
C 18.0610000   11.0860000   23.2720000  
N 17.7210000   12.3950000   22.8460000  
O 19.5270000    9.2420000   23.5200000  
C 19.4380000   10.5590000   23.4360000  
O 20.4140000   11.2390000   23.3340000  
O 13.2640000   14.2350000   21.9680000  
O 12.3310000   11.8450000   22.6100000  
H 13.9610000   10.0850000   23.4940000  
H 16.9790000    9.2790000   23.8170000  
H 18.6180000    8.9190000   23.7010000  
H 13.7360000   15.1140000   22.1090000  
C 16.2180000   14.7970000   22.3330000  
C 16.1230000   15.3630000   21.0420000  
C 16.6130000   16.6550000   20.8100000  
C 17.4140000   17.4370000   21.6910000  
C 17.5580000   16.8000000   22.9770000  
C 16.9660000   15.5340000   23.2570000  
C 15.3850000   14.9950000   19.8320000  
C 15.5270000   16.1240000   18.9330000  
N 16.2930000   17.1380000   19.6050000  
O 14.4320000   15.1630000   17.2040000  
C 15.0530000   16.2830000   17.5930000  
O 15.2170000   17.2570000   16.8290000  
O 18.2880000   17.4580000   23.9250000  
O 17.0110000   14.9940000   24.4400000  
H 14.9810000   14.0070000   19.5710000  
H 14.5340000   14.5470000   18.0090000  
H 16.8050000   17.9170000   19.1880000  
H 18.4800000   16.8280000   24.6360000  
H 16.5380000   14.1450000   24.4080000  
C 17.9600000   18.7950000   21.3370000  
C 17.8900000   19.8840000   22.2150000  
C 18.5570000   21.0650000   21.8250000  
C 19.1530000   21.3010000   20.5890000  
C 19.2400000   20.2330000   19.7550000  
C 18.7090000   18.9430000   20.1360000  
C 17.2900000   20.1080000   23.4910000  
C 17.6030000   21.4000000   23.8130000  
N 18.3130000   22.0860000   22.7530000  
O 16.2320000   21.5970000   25.6830000  
C 17.0440000   22.2490000   24.9090000  
O 17.2100000   23.4550000   25.0510000  
O 19.8730000   20.3350000   18.5890000  
O 19.0010000   17.8420000   19.3710000  
H 16.6420000   19.4550000   24.0560000  
H 16.1920000   20.6760000   25.4170000  
H 18.5160000   23.0620000   22.7190000  
H 19.9850000   21.2950000   18.3980000  
H 19.4330000   18.1520000   18.5630000  
C 19.7840000   22.5980000   20.2470000  
C 20.8490000   23.0280000   21.0340000  
C 21.5050000   24.2550000   20.8070000  
C 21.2050000   25.0600000   19.7060000  
C 20.0450000   24.7040000   18.9420000  
C 19.3560000   23.4720000   19.1960000  
C 21.4160000   22.4420000   22.2260000  
C 22.4160000   23.3310000   22.5910000  
N 22.4750000   24.4470000   21.7450000  
O 23.2080000   21.9890000   24.4400000  
C 23.2910000   23.1920000   23.7780000  
O 24.1210000   24.0250000   24.1020000  
O 19.6490000   25.4230000   17.8520000  
O 18.2750000   23.2450000   18.4680000  
H 21.2110000   21.4870000   22.7170000  
H 22.5490000   21.4330000   24.0940000  
H 22.9430000   25.3210000   21.8670000  
H 18.7620000   25.1040000   17.5930000  
H 18.0110000   22.3400000   18.6440000  
H 21.7130000   26.0130000   19.5140000  
