76
101 
C 15.4780000   11.0280000   22.6880000  
C 16.1760000   10.5220000   23.9630000  
C 17.0920000   11.2580000   24.6580000  
C 17.4000000   12.5730000   24.2820000  
C 16.7800000   13.2240000   23.1690000  
C 15.8740000   12.4700000   22.4100000  
C 18.0070000   10.9730000   25.7380000  
C 18.7490000   12.1820000   25.9440000  
N 18.2800000   13.1310000   25.0540000  
O 20.0440000   11.3710000   27.7520000  
C 19.7850000   12.4500000   26.9830000  
O 20.3590000   13.4950000   27.1260000  
O 15.2840000   13.0180000   21.3040000  
O 14.6860000   10.4110000   22.0000000  
H 16.0440000    9.4870000   24.1920000  
H 18.0470000   10.0260000   26.3050000  
H 19.5360000   10.6260000   27.4150000  
H 15.3400000   14.0230000   21.3870000  
C 17.1940000   14.5600000   22.7610000  
C 18.0110000   14.8090000   21.6160000  
C 18.3820000   16.0690000   21.2830000  
C 17.8000000   17.2310000   21.8680000  
C 16.9760000   16.9480000   22.9760000  
C 16.5830000   15.6910000   23.3750000  
C 18.8410000   13.8890000   20.8750000  
C 19.4920000   14.7760000   19.9910000  
N 19.2030000   16.1180000   20.2250000  
O 20.7510000   13.0320000   18.8960000  
C 20.5940000   14.3830000   19.0310000  
O 21.2530000   15.2510000   18.4640000  
O 16.2930000   17.9910000   23.6430000  
O 15.7950000   15.4410000   24.5020000  
H 18.8830000   12.8290000   20.9560000  
H 20.0150000   12.6130000   19.2810000  
H 19.5560000   16.8830000   19.7190000  
H 15.8960000   17.5150000   24.3730000  
H 15.5390000   14.4420000   24.5360000  
C 18.1830000   18.6720000   21.3930000  
C 17.5640000   19.2440000   20.3010000  
C 17.7180000   20.5450000   20.0780000  
C 18.5490000   21.4590000   20.8030000  
C 19.1720000   20.8760000   21.8980000  
C 18.9150000   19.5090000   22.2730000  
C 16.7250000   18.7200000   19.2500000  
C 16.5230000   19.7920000   18.3370000  
N 17.1160000   20.8940000   18.9030000  
O 15.2820000   18.5370000   16.8520000  
C 15.7770000   19.7520000   17.0560000  
O 15.5040000   20.7720000   16.4530000  
O 20.0570000   21.6150000   22.6710000  
O 19.4750000   18.9120000   23.4370000  
H 16.3490000   17.6650000   19.2160000  
H 15.7250000   17.9520000   17.4590000  
H 16.9560000   21.8370000   18.5600000  
H 20.1170000   22.4860000   22.2990000  
H 20.2540000   19.3550000   23.7950000  
C 18.8700000   22.8840000   20.3600000  
C 18.5220000   23.9980000   21.1630000  
C 18.6670000   25.3180000   20.6410000  
C 19.3900000   25.5570000   19.4190000  
C 19.8990000   24.4730000   18.6890000  
C 19.6010000   23.1000000   19.1100000  
C 17.8950000   24.1660000   22.3900000  
C 17.6070000   25.5190000   22.5770000  
N 18.1740000   26.2480000   21.4820000  
O 16.3690000   25.3830000   24.6440000  
C 16.9690000   26.2090000   23.7210000  
O 16.9290000   27.3910000   23.8720000  
O 20.6880000   24.7660000   17.6290000  
O 20.0910000   22.0550000   18.3650000  
H 17.6970000   23.3520000   23.1260000  
H 16.6990000   24.4620000   24.4250000  
H 18.0550000   27.2550000   21.3630000  
H 20.8610000   23.9770000   17.0830000  
H 20.1430000   21.2850000   18.9160000  
H 19.7040000   26.5690000   19.1730000  
