76
101 
C 11.3480000   14.8210000   20.7140000  
C 10.2820000   15.6020000   21.4500000  
C 10.6920000   16.6990000   22.1980000  
C 12.0370000   17.2020000   22.2330000  
C 13.0350000   16.5390000   21.4860000  
C 12.7520000   15.3750000   20.7560000  
C  9.9560000   17.5290000   22.9540000  
C 10.8730000   18.4650000   23.3620000  
N 12.2260000   18.2750000   22.9650000  
O  9.1010000   19.7100000   24.4870000  
C 10.4370000   19.6340000   24.1790000  
O 11.1430000   20.5740000   24.4450000  
O 13.5850000   14.6990000   19.9580000  
O 11.0960000   13.8500000   20.0370000  
H  9.2480000   15.3750000   21.2590000  
H  8.9290000   17.2670000   23.3270000  
H  8.6440000   18.9560000   24.1240000  
H 14.3280000   15.2740000   19.7680000  
C 14.4550000   16.9960000   21.5220000  
C 15.3460000   16.6240000   22.5870000  
C 16.6190000   17.0580000   22.5680000  
C 17.2150000   18.0120000   21.6310000  
C 16.3220000   18.3720000   20.5400000  
C 14.9950000   17.8000000   20.5130000  
C 15.0530000   15.8360000   23.8120000  
C 16.2560000   15.9300000   24.5260000  
N 17.2690000   16.6400000   23.7350000  
O 15.2670000   14.9680000   26.5570000  
C 16.3990000   15.5110000   25.9520000  
O 17.4370000   15.5850000   26.5590000  
O 16.7290000   19.1130000   19.3860000  
O 14.1940000   18.2510000   19.4990000  
H 14.0240000   15.5620000   24.1980000  
H 14.5410000   14.9650000   25.9520000  
H 18.1810000   16.8850000   23.9580000  
H 16.0070000   19.1870000   18.8350000  
H 13.2650000   18.1580000   19.7970000  
C 18.6290000   18.5390000   21.7560000  
C 19.7740000   17.7040000   21.7100000  
C 21.0140000   18.2350000   21.6430000  
C 21.3270000   19.5530000   21.5650000  
C 20.1960000   20.4450000   21.6450000  
C 18.9140000   19.9430000   21.7330000  
C 19.8450000   16.3260000   21.5310000  
C 21.1840000   16.0290000   21.3290000  
N 21.9340000   17.2420000   21.2780000  
O 20.8970000   13.6630000   21.1800000  
C 21.7410000   14.6800000   21.0380000  
O 22.8670000   14.4880000   20.6320000  
O 20.4370000   21.7960000   21.6200000  
O 17.8760000   20.7690000   21.8070000  
H 18.9240000   15.7100000   21.5200000  
H 20.0550000   14.0870000   21.3870000  
H 22.9400000   17.3150000   21.2240000  
H 21.3360000   22.0170000   21.5830000  
H 18.3070000   21.6380000   21.5720000  
C 22.7220000   20.0500000   21.6630000  
C 23.4580000   20.3350000   20.5370000  
C 24.7730000   20.7080000   20.5960000  
C 25.3950000   20.8510000   21.8000000  
C 24.7530000   20.6240000   22.9720000  
C 23.4100000   20.1780000   22.9580000  
C 23.0270000   20.3100000   19.2000000  
C 24.2160000   20.5190000   18.4010000  
N 25.3110000   20.7260000   19.3510000  
O 23.3730000   20.0710000   16.1420000  
C 24.4050000   20.4970000   16.9100000  
O 25.4820000   20.7430000   16.4040000  
O 25.3390000   20.8520000   24.1620000  
O 22.6810000   19.8250000   24.0810000  
H 22.0070000   20.1280000   18.9460000  
H 22.5240000   20.1280000   16.7030000  
H 26.2760000   20.8490000   19.1690000  
H 24.7420000   20.6120000   24.9410000  
H 21.7230000   19.7630000   23.8540000  
H 26.4690000   21.0920000   21.8690000  
