76
101 
C 14.3380000   22.4430000   26.6030000  
C 14.1640000   21.5520000   27.7110000  
C 14.6420000   20.2670000   27.7600000  
C 15.1830000   19.6650000   26.6300000  
C 15.4630000   20.4730000   25.4780000  
C 14.9720000   21.7820000   25.4140000  
C 14.4780000   19.2530000   28.7160000  
C 15.0240000   18.1200000   28.1730000  
N 15.4250000   18.3710000   26.8660000  
O 14.7180000   16.8510000   30.2420000  
C 15.1930000   16.8890000   28.9620000  
O 15.6000000   15.9020000   28.4010000  
O 14.9740000   22.5830000   24.3090000  
O 13.9140000   23.5870000   26.6830000  
H 13.7460000   22.0160000   28.5530000  
H 14.0670000   19.3520000   29.6740000  
H 14.3810000   17.7520000   30.3450000  
H 15.6070000   22.2340000   23.5810000  
C 16.1940000   19.8220000   24.3540000  
C 15.5060000   19.6310000   23.1620000  
C 16.1950000   19.1650000   22.0700000  
C 17.5410000   18.8480000   22.0560000  
C 18.2150000   19.0930000   23.2560000  
C 17.5830000   19.5730000   24.4050000  
C 14.1400000   19.7200000   22.6750000  
C 14.1410000   19.4700000   21.3060000  
N 15.3760000   18.9470000   20.9850000  
O 11.8800000   20.1400000   20.9440000  
C 12.9360000   19.4980000   20.3870000  
O 13.0050000   19.0590000   19.2560000  
O 19.5300000   18.6830000   23.3900000  
O 18.2120000   19.8530000   25.5580000  
H 13.2420000   19.9570000   23.3490000  
H 12.2950000   20.5470000   21.6990000  
H 15.6840000   18.5870000   20.0720000  
H 19.7590000   18.6940000   24.3470000  
H 17.6170000   20.4100000   26.1120000  
C 18.2780000   18.1680000   20.9420000  
C 19.1600000   18.8240000   20.0820000  
C 19.8900000   18.1980000   19.1230000  
C 19.7660000   16.7850000   18.9710000  
C 18.8360000   16.0580000   19.7260000  
C 18.1160000   16.7320000   20.7500000  
C 19.5740000   20.1410000   19.9200000  
C 20.5270000   20.2710000   18.9290000  
N 20.7360000   18.9890000   18.4180000  
O 20.9060000   22.6610000   19.1130000  
C 21.2830000   21.4880000   18.5410000  
O 22.1010000   21.5090000   17.5870000  
O 18.7070000   14.7570000   19.6020000  
O 17.3240000   16.0550000   21.6690000  
H 19.2570000   20.9430000   20.6070000  
H 20.3360000   22.4040000   19.8150000  
H 21.2800000   18.8280000   17.5770000  
H 19.1700000   14.4130000   18.8300000  
H 17.5380000   15.0810000   21.5420000  
C 20.5120000   16.0610000   17.8210000  
C 21.4360000   15.0250000   18.1390000  
C 21.9250000   14.2950000   17.0860000  
C 21.7350000   14.6700000   15.7290000  
C 20.7700000   15.6180000   15.3970000  
C 20.1360000   16.2290000   16.4580000  
C 21.9420000   14.4730000   19.3380000  
C 22.7290000   13.3750000   18.9760000  
N 22.7370000   13.3150000   17.5700000  
O 23.1420000   12.7270000   21.2740000  
C 23.3180000   12.4030000   19.9610000  
O 23.9770000   11.4780000   19.6620000  
O 20.3790000   15.8030000   14.0750000  
O 19.0880000   17.0720000   16.1730000  
H 21.8230000   14.8880000   20.3360000  
H 22.5250000   13.4960000   21.1710000  
H 23.2360000   12.5750000   16.9920000  
H 19.6520000   16.4390000   14.2060000  
H 18.6010000   17.1700000   16.9950000  
H 22.0600000   14.0930000   14.9270000  
