76
101 
C 13.8660000   19.6940000   27.3770000  
C 12.6690000   18.8440000   27.4270000  
C 12.3510000   18.1290000   26.3090000  
C 13.0970000   18.0900000   25.1560000  
C 14.3630000   18.7460000   25.1150000  
C 14.7350000   19.5540000   26.1890000  
C 11.2950000   17.2020000   26.1490000  
C 11.4930000   16.5350000   24.9360000  
N 12.6390000   17.1840000   24.3270000  
O  9.8910000   14.7390000   24.8530000  
C 10.9010000   15.3190000   24.2230000  
O 11.3660000   14.9010000   23.1710000  
O 15.9170000   20.1310000   26.2210000  
O 14.1960000   20.4030000   28.3440000  
H 12.2390000   18.6740000   28.3990000  
H 10.4780000   16.9380000   26.7770000  
H  9.6230000   15.4310000   25.4420000  
H 16.4640000   19.7760000   25.5490000  
C 15.1870000   18.5110000   23.9960000  
C 15.6290000   19.5730000   23.2030000  
C 16.5460000   19.5010000   22.1920000  
C 17.1770000   18.3000000   21.8840000  
C 16.7500000   17.2040000   22.6430000  
C 15.7910000   17.2410000   23.6550000  
C 15.3120000   20.9950000   23.3110000  
C 16.0250000   21.6080000   22.2550000  
N 16.6970000   20.6300000   21.4980000  
O 15.4290000   23.8730000   22.7810000  
C 16.1250000   23.0600000   21.9990000  
O 16.8350000   23.4460000   21.0880000  
O 17.3130000   15.9740000   22.4200000  
O 15.4380000   16.0900000   24.3090000  
H 14.6740000   21.5130000   23.9700000  
H 14.9310000   23.3050000   23.3270000  
H 17.3910000   20.8670000   20.7710000  
H 16.9900000   15.4200000   23.1770000  
H 14.9480000   16.3580000   25.0180000  
C 18.1880000   18.2310000   20.7860000  
C 19.3990000   18.9120000   21.0150000  
C 20.5040000   18.7370000   20.2660000  
C 20.5580000   17.8740000   19.1390000  
C 19.3170000   17.2450000   18.7430000  
C 18.1740000   17.4770000   19.5670000  
C 19.8330000   19.6720000   22.1110000  
C 21.1910000   19.8750000   21.9990000  
N 21.6550000   19.2920000   20.8360000  
O 21.4560000   21.0100000   24.0890000  
C 22.0580000   20.6300000   22.9460000  
O 23.2300000   20.8590000   22.7280000  
O 19.1070000   16.5520000   17.5990000  
O 17.0410000   16.7620000   19.4180000  
H 19.1260000   20.1130000   22.8590000  
H 20.6010000   20.5270000   24.0630000  
H 22.5860000   19.0340000   20.7290000  
H 19.8440000   16.7690000   17.0030000  
H 17.1770000   16.0190000   18.8690000  
C 21.9310000   17.6330000   18.4790000  
C 22.3760000   16.2570000   18.2210000  
C 23.4830000   16.0500000   17.4660000  
C 24.1220000   17.0910000   16.7700000  
C 23.7370000   18.4140000   16.9770000  
C 22.6300000   18.6920000   17.8260000  
C 21.7790000   14.9700000   18.4880000  
C 22.5830000   14.0230000   17.9410000  
N 23.6610000   14.6790000   17.3520000  
O 21.4190000   12.1220000   18.7950000  
C 22.5120000   12.5450000   18.1660000  
O 23.3660000   11.8340000   17.6840000  
O 24.4340000   19.3780000   16.3430000  
O 22.1810000   19.9920000   17.9130000  
H 20.9020000   14.7530000   19.0750000  
H 21.0060000   12.9380000   19.2340000  
H 24.3900000   14.2510000   16.8000000  
H 24.1730000   20.3210000   16.5790000  
H 21.4090000   19.8950000   18.5540000  
H 24.9000000   16.8950000   15.9660000  
