76
101 
C 18.6500000   21.4360000   28.4580000  
C 17.5470000   20.8890000   29.3100000  
C 16.6940000   19.9610000   28.7530000  
C 16.7900000   19.4480000   27.4620000  
C 17.8660000   19.9360000   26.6510000  
C 18.7340000   20.8870000   27.0830000  
C 15.6640000   19.1330000   29.2890000  
C 15.2000000   18.2650000   28.3140000  
N 15.9480000   18.4450000   27.1310000  
O 13.3900000   17.4830000   29.6320000  
C 13.9650000   17.3940000   28.4030000  
O 13.4470000   16.8100000   27.4580000  
O 19.7180000   21.3470000   26.2330000  
O 19.4320000   22.3440000   28.8880000  
H 17.3330000   21.3060000   30.3320000  
H 15.3130000   19.1710000   30.3430000  
H 13.9650000   17.9030000   30.2660000  
H 19.8310000   20.5990000   25.6000000  
C 17.9900000   19.3090000   25.3500000  
C 17.8480000   20.0950000   24.1880000  
C 18.0340000   19.6250000   22.8870000  
C 18.2650000   18.2890000   22.6100000  
C 18.4000000   17.4410000   23.7880000  
C 18.2360000   17.9640000   25.1140000  
C 17.4430000   21.4780000   24.0740000  
C 17.4100000   21.7590000   22.6940000  
N 17.7740000   20.6080000   21.9650000  
O 16.4990000   23.8230000   23.0360000  
C 17.0150000   22.9770000   22.1130000  
O 16.9630000   23.1000000   20.9230000  
O 18.5200000   16.0700000   23.6080000  
O 18.4500000   17.1270000   26.1150000  
H 17.2650000   22.1350000   24.9280000  
H 16.5060000   23.3600000   23.8850000  
H 17.7320000   20.4420000   20.9530000  
H 17.8960000   15.6970000   24.3350000  
H 18.3680000   17.5470000   27.0230000  
C 18.3870000   17.7930000   21.2040000  
C 19.5660000   17.1970000   20.6800000  
C 19.6770000   16.9070000   19.3290000  
C 18.6850000   17.1680000   18.3710000  
C 17.4720000   17.6270000   18.8780000  
C 17.3870000   17.9460000   20.2360000  
C 20.8000000   16.7080000   21.2970000  
C 21.5030000   15.9630000   20.3100000  
N 20.7950000   16.0890000   19.1090000  
O 23.2310000   15.2180000   21.8340000  
C 22.8000000   15.2500000   20.5310000  
O 23.3670000   14.7120000   19.6070000  
O 16.5040000   18.0200000   18.0380000  
O 16.2320000   18.5300000   20.6320000  
H 20.9910000   16.8040000   22.3650000  
H 22.4630000   15.5350000   22.4140000  
H 21.1200000   15.6500000   18.2440000  
H 16.7570000   17.7230000   17.0950000  
H 15.6890000   18.4970000   19.8130000  
C 18.8780000   16.9420000   16.9460000  
C 17.9810000   16.1170000   16.1700000  
C 18.0820000   16.0360000   14.8080000  
C 19.0660000   16.8070000   14.0820000  
C 19.8740000   17.6240000   14.7740000  
C 19.7900000   17.7180000   16.1490000  
C 16.7900000   15.2660000   16.5030000  
C 16.3140000   14.7600000   15.3310000  
N 17.0660000   15.2780000   14.2870000  
O 14.7800000   13.1210000   16.3440000  
C 15.1520000   13.7810000   15.1930000  
O 14.6300000   13.5870000   14.1220000  
O 20.9350000   18.2600000   14.1000000  
O 20.6570000   18.5890000   16.7870000  
H 16.3870000   14.9890000   17.4920000  
H 15.2520000   13.5780000   17.0660000  
H 17.0480000   15.0180000   13.3390000  
H 21.2930000   18.9160000   14.6970000  
H 20.9420000   18.4400000   17.7370000  
H 19.2290000   16.8550000   12.9830000  
