76
101 
C 11.8140000   19.9550000   25.3190000  
C 11.0100000   18.6920000   25.3970000  
C 11.4540000   17.5180000   24.8860000  
C 12.7370000   17.4630000   24.3160000  
C 13.5720000   18.5830000   24.2010000  
C 13.0700000   19.7650000   24.5650000  
C 10.8570000   16.2680000   24.6770000  
C 11.7980000   15.4960000   24.0210000  
N 12.9820000   16.2550000   23.8480000  
O 10.3720000   13.5880000   23.8560000  
C 11.6260000   14.1320000   23.6240000  
O 12.4600000   13.4100000   23.1020000  
O 13.7790000   20.9360000   24.4960000  
O 11.3760000   21.0010000   25.8190000  
H 10.0340000   18.8630000   25.8600000  
H  9.8690000   16.0970000   24.9990000  
H  9.8640000   14.2580000   24.1960000  
H 14.5300000   20.6540000   23.9830000  
C 14.8660000   18.3900000   23.4790000  
C 14.9670000   18.1610000   22.1470000  
C 16.1610000   18.0030000   21.5510000  
C 17.4180000   18.1430000   22.1580000  
C 17.3440000   18.4250000   23.5800000  
C 16.0960000   18.5610000   24.1700000  
C 14.0310000   17.9710000   21.0310000  
C 14.7870000   17.5770000   19.9170000  
N 16.0830000   17.6190000   20.2140000  
O 12.9450000   17.4580000   18.4460000  
C 14.2610000   17.2350000   18.5930000  
O 14.9060000   16.8530000   17.6170000  
O 18.4580000   18.6550000   24.3580000  
O 15.9940000   18.8750000   25.5180000  
H 13.0030000   17.8560000   21.1130000  
H 12.7440000   17.6100000   19.3280000  
H 16.8400000   17.3760000   19.5910000  
H 18.0900000   18.7130000   25.2210000  
H 15.0380000   18.5750000   25.8000000  
C 18.7350000   17.9880000   21.5010000  
C 19.1180000   18.8540000   20.4260000  
C 20.3760000   18.7740000   19.9130000  
C 21.3010000   17.7930000   20.1840000  
C 20.9070000   16.8630000   21.2050000  
C 19.6290000   16.9690000   21.8360000  
C 18.5300000   20.0150000   19.8890000  
C 19.5160000   20.6960000   19.1250000  
N 20.6470000   19.8930000   19.1670000  
O 18.0780000   22.5120000   18.4560000  
C 19.2760000   21.9220000   18.3170000  
O 20.1600000   22.4370000   17.6900000  
O 21.7380000   15.8360000   21.5390000  
O 19.3520000   15.9820000   22.7380000  
H 17.5420000   20.3250000   20.2070000  
H 17.6940000   21.9420000   19.0580000  
H 21.5060000   20.1150000   18.6390000  
H 22.4720000   15.9400000   20.8910000  
H 20.1410000   15.4880000   22.9280000  
C 22.7190000   17.7820000   19.6970000  
C 23.6870000   17.7220000   20.6990000  
C 25.0270000   17.8120000   20.3990000  
C 25.5410000   17.6780000   19.1150000  
C 24.6400000   17.7100000   18.0370000  
C 23.1990000   17.7770000   18.3210000  
C 23.5870000   18.0440000   22.1080000  
C 24.9080000   18.0960000   22.6180000  
N 25.7780000   17.9860000   21.5270000  
O 24.2320000   18.0590000   24.8590000  
C 25.2870000   18.1320000   24.0040000  
O 26.4320000   18.2850000   24.4210000  
O 25.0980000   17.4780000   16.7670000  
O 22.3170000   17.7760000   17.2750000  
H 22.6660000   18.2550000   22.6800000  
H 23.4140000   18.0250000   24.4060000  
H 26.8370000   17.8360000   21.5300000  
H 24.4130000   17.2140000   16.1430000  
H 21.5210000   17.9520000   17.7130000  
H 26.6390000   17.6360000   18.9450000  
