76
101 
C 14.5660000   17.1440000   27.9650000  
C 13.5770000   18.2220000   28.1370000  
C 13.2840000   19.1380000   27.1650000  
C 13.9060000   19.1180000   25.9350000  
C 14.8430000   18.1050000   25.5690000  
C 15.1450000   17.1320000   26.5110000  
C 12.5000000   20.2600000   27.2470000  
C 12.6870000   20.8460000   26.0320000  
N 13.5910000   20.1810000   25.1920000  
O 11.1910000   22.6640000   26.5960000  
C 12.0340000   22.1010000   25.6450000  
O 12.2470000   22.7060000   24.6130000  
O 16.0760000   16.1300000   26.3310000  
O 14.8830000   16.4540000   28.8800000  
H 13.2780000   18.3890000   29.1770000  
H 11.8740000   20.5030000   28.0780000  
H 10.9590000   21.9340000   27.2620000  
H 16.4870000   16.5190000   25.4690000  
C 15.6320000   18.2180000   24.2990000  
C 16.8740000   18.8980000   24.3700000  
C 17.8010000   18.8920000   23.3720000  
C 17.4840000   18.3970000   22.0960000  
C 16.1380000   17.7910000   21.9300000  
C 15.2690000   17.7690000   23.0180000  
C 17.5290000   19.5600000   25.4910000  
C 18.7900000   20.0480000   25.0840000  
N 18.9340000   19.5850000   23.7680000  
O 19.4570000   21.2160000   27.1740000  
C 19.8260000   20.7880000   25.9310000  
O 20.9280000   20.9870000   25.4340000  
O 15.7390000   17.2080000   20.7240000  
O 13.9960000   17.2780000   22.7860000  
H 17.1320000   19.8390000   26.4500000  
H 18.5700000   20.8990000   27.2120000  
H 19.6860000   19.8260000   23.1620000  
H 14.8130000   16.8720000   20.8960000  
H 13.5070000   17.3130000   23.5780000  
C 18.4880000   18.5550000   20.9530000  
C 19.5580000   17.6980000   21.0520000  
C 20.3800000   17.4490000   19.9660000  
C 20.3080000   18.0710000   18.6640000  
C 19.1950000   18.9400000   18.5070000  
C 18.3090000   19.2260000   19.6710000  
C 20.0190000   16.7950000   22.0520000  
C 21.2190000   16.2000000   21.5340000  
N 21.4120000   16.6360000   20.2460000  
O 21.6130000   15.0210000   23.6150000  
C 22.0100000   15.2570000   22.3340000  
O 23.0150000   14.7740000   21.8860000  
O 18.9230000   19.5900000   17.2900000  
O 17.2580000   20.0840000   19.4360000  
H 19.5400000   16.5390000   22.9970000  
H 20.7040000   15.3700000   23.7120000  
H 22.1050000   16.2890000   19.5610000  
H 19.4860000   19.1700000   16.6080000  
H 17.2530000   20.1300000   18.4560000  
C 21.1560000   17.6300000   17.5010000  
C 20.5490000   16.9280000   16.4620000  
C 21.2760000   16.2720000   15.5400000  
C 22.6760000   16.1790000   15.5500000  
C 23.2960000   16.8930000   16.5610000  
C 22.5620000   17.6180000   17.4790000  
C 19.1340000   16.6730000   16.1110000  
C 19.1010000   15.8590000   15.0160000  
N 20.4590000   15.5370000   14.7140000  
O 16.7400000   15.8170000   14.7310000  
C 17.9040000   15.3900000   14.2250000  
O 18.0020000   14.6390000   13.2540000  
O 24.6150000   16.8140000   16.7590000  
O 23.2580000   18.3240000   18.4460000  
H 18.2170000   17.0010000   16.6260000  
H 16.9340000   16.2710000   15.5230000  
H 20.8010000   14.8450000   14.0600000  
H 24.9000000   17.5950000   17.3660000  
H 22.7460000   19.1380000   18.6190000  
H 23.1950000   15.4770000   14.8840000  
