76
101 
C 21.1130000   18.7120000   28.2990000  
C 20.9140000   17.4400000   29.0770000  
C 20.4520000   16.3500000   28.4110000  
C 20.0110000   16.3100000   27.0540000  
C 20.0630000   17.5410000   26.2650000  
C 20.5070000   18.6620000   26.9160000  
C 20.1950000   15.0580000   28.8860000  
C 19.6540000   14.3660000   27.7480000  
N 19.5470000   15.1560000   26.6390000  
O 19.4280000   12.3000000   28.8670000  
C 19.2250000   12.9660000   27.7110000  
O 18.7820000   12.3770000   26.7600000  
O 20.6050000   19.8430000   26.2830000  
O 21.5610000   19.7370000   28.8290000  
H 21.1160000   17.4240000   30.1390000  
H 20.2570000   14.6950000   29.9230000  
H 19.5270000   12.9600000   29.5760000  
H 20.6520000   19.7100000   25.3080000  
C 19.5960000   17.4860000   24.8680000  
C 18.2100000   17.3750000   24.6200000  
C 17.7800000   17.5350000   23.3360000  
C 18.5670000   17.5700000   22.1890000  
C 19.9660000   17.7550000   22.4710000  
C 20.4590000   17.7190000   23.8010000  
C 16.9660000   17.3990000   25.4450000  
C 15.9390000   17.2600000   24.5570000  
N 16.4290000   17.3190000   23.2700000  
O 14.4080000   17.0950000   26.3930000  
C 14.5060000   17.1500000   24.9870000  
O 13.5340000   17.0370000   24.3150000  
O 20.8370000   18.1300000   21.4300000  
O 21.8230000   17.8190000   24.0070000  
H 17.0160000   17.3650000   26.5080000  
H 15.2160000   17.4680000   26.6940000  
H 15.9300000   17.2640000   22.3400000  
H 21.8040000   18.1480000   21.6850000  
H 21.9740000   17.6430000   25.0060000  
C 17.9360000   17.5950000   20.8660000  
C 17.0290000   18.5550000   20.4520000  
C 16.6910000   18.7350000   19.1130000  
C 17.1260000   17.9020000   18.0730000  
C 17.9780000   16.8390000   18.4730000  
C 18.3710000   16.7230000   19.8190000  
C 16.4610000   19.6150000   21.1720000  
C 15.7150000   20.3720000   20.2250000  
N 15.8470000   19.7780000   18.9630000  
O 15.0930000   21.8990000   21.7780000  
C 14.9080000   21.5180000   20.5100000  
O 14.2390000   22.0400000   19.6100000  
O 18.5280000   15.9800000   17.5830000  
O 19.2950000   15.7360000   20.0120000  
H 16.4540000   19.9230000   22.2450000  
H 15.5610000   21.2040000   22.3100000  
H 15.4160000   20.0340000   18.1080000  
H 18.2430000   16.2510000   16.7100000  
H 19.6290000   15.4690000   19.1890000  
C 16.7430000   18.2290000   16.7140000  
C 17.4900000   19.1370000   15.9250000  
C 17.0760000   19.6950000   14.7710000  
C 15.8420000   19.3580000   14.1740000  
C 15.0320000   18.4820000   14.9300000  
C 15.5150000   17.8790000   16.1240000  
C 18.6760000   19.8960000   16.3110000  
C 18.9140000   20.9150000   15.3830000  
N 17.8710000   20.7620000   14.4410000  
O 20.7600000   21.9450000   16.4930000  
C 19.9160000   22.0190000   15.4700000  
O 19.9640000   22.9390000   14.6540000  
O 13.7650000   18.2170000   14.5650000  
O 14.6460000   17.0470000   16.8190000  
H 19.4160000   19.6280000   17.1200000  
H 20.5460000   21.0340000   16.8390000  
H 17.6380000   21.4780000   13.7810000  
H 13.5480000   17.4760000   15.1160000  
H 15.1220000   16.2710000   17.2210000  
H 15.5180000   19.7500000   13.2300000  
