76
101 
C 14.5800000   17.5890000   28.0410000  
C 13.2230000   18.0680000   28.0060000  
C 12.6880000   18.5590000   26.8030000  
C 13.4520000   18.6580000   25.5990000  
C 14.7230000   18.0800000   25.5420000  
C 15.2670000   17.5530000   26.6970000  
C 11.5090000   19.1520000   26.5600000  
C 11.6590000   19.7050000   25.2780000  
N 12.7750000   19.2590000   24.6230000  
O  9.6130000   20.8680000   25.3850000  
C 10.7220000   20.6480000   24.6420000  
O 10.8660000   21.1780000   23.5940000  
O 16.5000000   16.9610000   26.8140000  
O 15.0370000   17.1510000   29.0790000  
H 12.6830000   18.0580000   28.9460000  
H 10.7650000   19.2750000   27.3260000  
H  9.4420000   20.0980000   25.8660000  
H 17.0760000   17.3760000   26.0870000  
C 15.4070000   18.0200000   24.2820000  
C 16.0840000   19.1250000   23.7960000  
C 16.8840000   19.1080000   22.6930000  
C 17.2040000   17.9610000   21.9650000  
C 16.5670000   16.8360000   22.4450000  
C 15.6160000   16.8620000   23.4990000  
C 16.0580000   20.4970000   24.2250000  
C 16.9190000   21.2650000   23.3790000  
N 17.5040000   20.3610000   22.4770000  
O 16.3600000   23.4890000   24.1860000  
C 17.2200000   22.7710000   23.4410000  
O 18.0740000   23.3210000   22.8190000  
O 16.8220000   15.6240000   21.9270000  
O 15.0780000   15.6710000   23.7960000  
H 15.6370000   20.9350000   25.1130000  
H 15.7110000   22.8390000   24.5220000  
H 18.1620000   20.6360000   21.7290000  
H 16.1640000   15.0420000   22.3820000  
H 14.2310000   15.7150000   24.3120000  
C 18.2260000   17.9990000   20.8820000  
C 19.5780000   18.1710000   21.1580000  
C 20.4890000   17.9790000   20.1420000  
C 20.1670000   17.7930000   18.7680000  
C 18.8310000   17.4930000   18.4820000  
C 17.8300000   17.6600000   19.5110000  
C 20.3630000   18.4090000   22.3660000  
C 21.7130000   18.4100000   21.9950000  
N 21.7500000   18.2060000   20.5990000  
O 22.4180000   18.7340000   24.2400000  
C 22.8470000   18.5330000   22.9620000  
O 24.0390000   18.4900000   22.7170000  
O 18.4480000   17.1230000   17.2130000  
O 16.5250000   17.4420000   19.1420000  
H 19.9540000   18.3670000   23.3500000  
H 21.4830000   18.5290000   24.2090000  
H 22.6540000   18.2080000   20.0870000  
H 19.1090000   17.5170000   16.5780000  
H 16.4500000   17.0930000   18.2050000  
C 21.2170000   17.6230000   17.7130000  
C 21.7560000   16.3390000   17.4500000  
C 22.6070000   16.1430000   16.3890000  
C 22.8710000   17.2090000   15.4560000  
C 22.3490000   18.5100000   15.6930000  
C 21.5280000   18.7240000   16.8800000  
C 21.5780000   14.9970000   18.0090000  
C 22.2990000   14.1280000   17.2230000  
N 22.9850000   14.8220000   16.2620000  
O 21.5080000   12.1410000   18.2400000  
C 22.3770000   12.6720000   17.3550000  
O 23.1380000   11.9790000   16.6930000  
O 22.4380000   19.5420000   14.7690000  
O 21.1090000   20.0300000   17.0850000  
H 20.9220000   14.7830000   18.8680000  
H 20.8870000   12.8260000   18.5720000  
H 23.4890000   14.4370000   15.5170000  
H 21.9240000   20.2440000   15.0870000  
H 20.2790000   20.0820000   17.6330000  
H 23.4470000   17.0280000   14.5740000  
