76
101 
C 10.6620000   17.8160000   21.2270000  
C  9.9940000   18.3670000   22.4620000  
C 10.8540000   18.6740000   23.5160000  
C 12.2440000   18.7080000   23.4620000  
C 12.9350000   18.3690000   22.1830000  
C 12.1630000   17.8300000   21.1700000  
C 10.5540000   19.0090000   24.8580000  
C 11.7530000   19.4140000   25.4620000  
N 12.8600000   19.1450000   24.6020000  
O 10.9280000   20.0320000   27.6320000  
C 12.0750000   19.8730000   26.8460000  
O 13.1850000   20.1220000   27.3190000  
O 12.7110000   17.5810000   19.9480000  
O  9.9480000   17.4370000   20.3400000  
H  8.9530000   18.2420000   22.6650000  
H  9.5820000   18.9950000   25.3260000  
H 10.1640000   19.7170000   27.0910000  
H 13.6830000   17.5950000   19.9480000  
C 14.3910000   18.4800000   22.1270000  
C 15.1430000   17.4120000   22.5850000  
C 16.5150000   17.5550000   22.5450000  
C 17.2290000   18.5800000   21.8810000  
C 16.4530000   19.6160000   21.3630000  
C 15.0280000   19.5830000   21.4550000  
C 14.8260000   16.2210000   23.4040000  
C 16.0990000   15.5980000   23.5560000  
N 17.1140000   16.3890000   23.0620000  
O 15.2560000   13.7380000   24.7750000  
C 16.3720000   14.3210000   24.2260000  
O 17.4580000   13.7770000   24.3500000  
O 17.0740000   20.6570000   20.6520000  
O 14.2770000   20.5780000   20.9060000  
H 13.8800000   15.9620000   23.8390000  
H 14.5760000   14.4690000   24.8830000  
H 18.0970000   16.1490000   23.1400000  
H 16.4860000   21.3770000   20.2660000  
H 13.3330000   20.4190000   21.0600000  
C 18.7060000   18.4490000   21.6660000  
C 19.2430000   17.5250000   20.7610000  
C 20.6170000   17.2990000   20.6670000  
C 21.5650000   18.0290000   21.2910000  
C 21.0500000   18.9480000   22.2530000  
C 19.6570000   19.1290000   22.4970000  
C 18.6310000   16.6310000   19.8140000  
C 19.6720000   15.9340000   19.2000000  
N 20.9270000   16.4000000   19.6830000  
O 18.1350000   14.7210000   17.7360000  
C 19.4240000   14.9550000   18.0700000  
O 20.3320000   14.3730000   17.5080000  
O 21.9720000   19.5700000   23.1550000  
O 19.2150000   19.8910000   23.5080000  
H 17.5590000   16.3740000   19.7230000  
H 17.5540000   15.1230000   18.4530000  
H 21.8090000   16.2350000   19.2020000  
H 22.8830000   19.2330000   22.8850000  
H 19.7960000   20.6040000   23.7210000  
C 23.0810000   17.8470000   21.0540000  
C 23.6700000   18.8130000   20.2340000  
C 24.9780000   18.7010000   19.9250000  
C 25.7950000   17.7330000   20.4320000  
C 25.2170000   16.7740000   21.3830000  
C 23.8360000   16.8090000   21.6710000  
C 23.1820000   19.9700000   19.4830000  
C 24.2930000   20.5090000   18.9270000  
N 25.3920000   19.7540000   19.2030000  
O 23.1140000   22.3880000   17.9630000  
C 24.3050000   21.7450000   18.0580000  
O 25.2780000   22.2560000   17.5340000  
O 26.1010000   15.8510000   21.8330000  
O 23.2850000   15.9690000   22.6740000  
H 22.2620000   20.4450000   19.5840000  
H 22.5990000   22.0350000   18.6740000  
H 26.1950000   19.8740000   18.5390000  
H 25.5650000   15.1230000   22.1850000  
H 22.3540000   15.8840000   22.4610000  
H 26.8390000   17.8220000   20.2730000  
