76
101 
C 15.5570000   17.8740000   28.8150000  
C 16.4690000   18.7300000   29.6230000  
C 17.4030000   19.5270000   29.0100000  
C 17.6410000   19.5070000   27.6240000  
C 16.8150000   18.6810000   26.7860000  
C 15.8480000   17.8760000   27.3660000  
C 18.3350000   20.4260000   29.5750000  
C 19.1210000   20.8180000   28.5040000  
N 18.6630000   20.2880000   27.2790000  
O 20.4170000   22.2280000   29.8950000  
C 20.3530000   21.6120000   28.6950000  
O 21.1050000   21.8440000   27.7330000  
O 14.9690000   17.2170000   26.6280000  
O 14.7460000   17.0570000   29.3460000  
H 16.2750000   18.7150000   30.6550000  
H 18.5220000   20.6390000   30.6350000  
H 19.4990000   21.9800000   30.3510000  
H 15.2050000   17.3480000   25.6500000  
C 17.0840000   18.6160000   25.3080000  
C 17.4950000   17.4350000   24.7020000  
C 17.6500000   17.3530000   23.3560000  
C 17.4450000   18.4500000   22.4590000  
C 17.1090000   19.7060000   23.0750000  
C 16.8780000   19.7660000   24.4560000  
C 17.8390000   16.1190000   25.1960000  
C 18.2350000   15.3450000   24.1370000  
N 18.1150000   16.1200000   22.9890000  
O 18.6920000   13.4210000   25.3860000  
C 18.6330000   13.9100000   24.1610000  
O 18.7370000   13.2230000   23.1510000  
O 16.9010000   20.7810000   22.2680000  
O 16.4060000   20.9370000   25.0060000  
H 17.7980000   15.8290000   26.2510000  
H 18.4610000   14.1870000   25.9930000  
H 18.5630000   15.9630000   22.0840000  
H 16.4540000   21.4700000   22.7610000  
H 16.3810000   20.8010000   25.9210000  
C 17.7390000   18.3770000   21.0110000  
C 16.9480000   17.5850000   20.2010000  
C 17.3620000   17.3810000   18.8470000  
C 18.5460000   17.8380000   18.2100000  
C 19.3260000   18.6290000   19.1220000  
C 18.9800000   18.8960000   20.4590000  
C 15.7550000   16.8060000   20.3660000  
C 15.4480000   16.2260000   19.0960000  
N 16.4810000   16.5240000   18.2060000  
O 13.4540000   15.1390000   19.7120000  
C 14.3100000   15.4040000   18.7510000  
O 14.1610000   14.9080000   17.6200000  
O 20.5030000   19.2480000   18.7580000  
O 19.8750000   19.4660000   21.3720000  
H 15.1250000   16.6380000   21.2660000  
H 13.6090000   15.7750000   20.4310000  
H 16.6520000   16.0810000   17.2870000  
H 20.5700000   19.0240000   17.8590000  
H 20.6650000   19.8380000   20.8540000  
C 19.1120000   17.3580000   16.9530000  
C 19.4400000   18.2630000   15.9440000  
C 19.8240000   17.7990000   14.7560000  
C 19.8750000   16.4840000   14.3860000  
C 19.6520000   15.5480000   15.4100000  
C 19.2480000   15.9950000   16.6370000  
C 19.3760000   19.7110000   15.9540000  
C 19.6010000   19.9990000   14.5660000  
N 19.9520000   18.8370000   13.8610000  
O 19.5510000   22.2960000   14.8920000  
C 19.7060000   21.3510000   14.0000000  
O 19.9020000   21.6570000   12.8750000  
O 19.7580000   14.2120000   15.0610000  
O 19.0430000   15.1540000   17.6540000  
H 19.1410000   20.4170000   16.8040000  
H 19.3440000   21.7130000   15.6340000  
H 20.5070000   18.8250000   13.0130000  
H 19.2630000   13.7580000   15.7190000  
H 18.7230000   15.6970000   18.3540000  
H 20.0910000   16.1470000   13.3810000  
