76
101 
C 19.0010000   14.9660000   28.2290000  
C 19.9810000   15.6640000   29.0890000  
C 20.6250000   16.8040000   28.6520000  
C 20.3820000   17.3490000   27.3900000  
C 19.3710000   16.7710000   26.5230000  
C 18.7280000   15.6700000   26.9340000  
C 21.7260000   17.5230000   29.1660000  
C 22.1110000   18.4950000   28.2090000  
N 21.2890000   18.3220000   27.0920000  
O 23.9630000   19.1620000   29.4990000  
C 23.2370000   19.4410000   28.4100000  
O 23.6170000   20.2720000   27.6150000  
O 17.8210000   15.0880000   26.2040000  
O 18.4100000   13.9290000   28.5220000  
H 20.3530000   15.1470000   29.9510000  
H 22.2370000   17.3560000   30.1120000  
H 23.5780000   18.4620000   30.0490000  
H 18.1090000   15.3580000   25.2840000  
C 19.1850000   17.4220000   25.2160000  
C 19.4980000   16.7340000   23.9950000  
C 19.2250000   17.2560000   22.7260000  
C 18.4080000   18.3460000   22.4850000  
C 18.1460000   19.0850000   23.6820000  
C 18.4990000   18.6430000   24.9890000  
C 19.9230000   15.3870000   23.7200000  
C 19.7560000   15.1200000   22.3890000  
N 19.4010000   16.3550000   21.7390000  
O 20.4790000   12.7600000   22.3110000  
C 20.0750000   13.8580000   21.5990000  
O 19.6840000   13.7170000   20.4550000  
O 17.5470000   20.3110000   23.6020000  
O 18.1880000   19.3640000   26.0760000  
H 20.2460000   14.6860000   24.3980000  
H 20.4400000   13.0010000   23.2810000  
H 19.3310000   16.5600000   20.7690000  
H 17.7030000   20.7740000   24.4300000  
H 18.7230000   19.0320000   26.7770000  
C 17.8830000   18.7700000   21.1860000  
C 16.5310000   18.3510000   20.7970000  
C 16.1210000   18.3440000   19.4960000  
C 16.8840000   18.9570000   18.4900000  
C 18.2230000   19.3730000   18.8700000  
C 18.7400000   19.2440000   20.1940000  
C 15.4680000   17.7110000   21.4930000  
C 14.5060000   17.3240000   20.5320000  
N 14.9070000   17.7990000   19.3240000  
O 13.0320000   16.2030000   21.9870000  
C 13.2360000   16.6200000   20.7320000  
O 12.4080000   16.3730000   19.9290000  
O 18.9850000   20.0110000   17.9310000  
O 19.9840000   19.5320000   20.4460000  
H 15.3220000   17.8120000   22.5370000  
H 13.8400000   16.4430000   22.4500000  
H 14.4020000   17.7120000   18.5000000  
H 18.3720000   20.5410000   17.3900000  
H 20.1510000   19.1940000   21.3250000  
C 16.5160000   18.8730000   17.0150000  
C 15.9820000   20.0210000   16.3600000  
C 15.5390000   20.0100000   15.1150000  
C 15.7140000   18.8740000   14.3480000  
C 16.1570000   17.6600000   14.9420000  
C 16.5500000   17.6430000   16.3450000  
C 15.8440000   21.4040000   16.7730000  
C 15.4870000   22.1690000   15.7100000  
N 15.2980000   21.2700000   14.5700000  
O 15.6020000   24.3980000   16.7450000  
C 15.4690000   23.6560000   15.5970000  
O 15.2030000   24.2510000   14.5480000  
O 16.3620000   16.5650000   14.1950000  
O 17.1350000   16.5220000   16.9720000  
H 16.0470000   21.8040000   17.7350000  
H 15.6980000   23.7090000   17.3850000  
H 14.9900000   21.5980000   13.6380000  
H 16.5510000   15.7810000   14.8310000  
H 17.5280000   16.8200000   17.8170000  
H 15.5390000   18.9740000   13.2820000  
