76
101 
C 13.0020000   22.6680000   25.1100000  
C 12.8810000   22.2330000   26.5080000  
C 13.3600000   20.9600000   26.8580000  
C 14.2100000   20.2160000   26.0650000  
C 14.5000000   20.5720000   24.7010000  
C 13.9020000   21.7400000   24.2270000  
C 13.3650000   20.3200000   28.0920000  
C 14.1800000   19.2600000   27.9550000  
N 14.7300000   19.1730000   26.6770000  
O 13.8760000   18.4420000   30.1810000  
C 14.4380000   18.2120000   28.9670000  
O 14.8880000   17.1460000   28.7110000  
O 14.1520000   22.1580000   23.0100000  
O 12.5590000   23.7350000   24.7160000  
H 12.2890000   22.8740000   27.1950000  
H 12.8550000   20.6690000   29.0040000  
H 13.7140000   19.3840000   30.1640000  
H 14.6790000   21.5460000   22.5660000  
C 15.5070000   19.7790000   23.9190000  
C 15.2090000   18.5780000   23.1970000  
C 16.2000000   17.9040000   22.5410000  
C 17.4740000   18.4350000   22.3210000  
C 17.7550000   19.6470000   23.0300000  
C 16.8120000   20.1750000   23.9260000  
C 13.9110000   17.9960000   22.7850000  
C 14.2350000   16.9610000   21.9170000  
N 15.5980000   16.9510000   21.7170000  
O 12.0920000   16.1680000   21.5280000  
C 13.3610000   16.0360000   21.2240000  
O 13.7530000   15.1380000   20.4830000  
O 19.0590000   20.1480000   22.9690000  
O 17.2690000   21.2130000   24.7580000  
H 12.8950000   18.1450000   23.1510000  
H 11.9970000   17.0130000   21.9440000  
H 16.0890000   16.2860000   21.1280000  
H 19.3450000   20.4350000   23.8650000  
H 16.4550000   21.5210000   25.1880000  
C 18.3950000   17.7610000   21.3580000  
C 18.9740000   18.5120000   20.2340000  
C 19.8190000   17.9500000   19.2860000  
C 20.2300000   16.6240000   19.3030000  
C 19.8040000   15.8880000   20.4780000  
C 18.9070000   16.4280000   21.4650000  
C 18.9940000   19.9540000   19.9020000  
C 19.7240000   20.0660000   18.6890000  
N 20.1660000   18.8370000   18.2870000  
O 19.5810000   22.4070000   18.5610000  
C 19.9910000   21.2690000   17.9490000  
O 20.5460000   21.2410000   16.8480000  
O 20.2420000   14.5830000   20.5590000  
O 18.6020000   15.6760000   22.5950000  
H 18.5730000   20.7840000   20.4820000  
H 19.0100000   22.2220000   19.3190000  
H 20.3910000   18.4810000   17.2840000  
H 21.0560000   14.3580000   20.0440000  
H 19.2290000   14.9220000   22.5990000  
C 21.0590000   15.9520000   18.2200000  
C 22.3440000   15.5140000   18.4940000  
C 23.1100000   14.9610000   17.4850000  
C 22.6620000   14.7670000   16.1610000  
C 21.3490000   15.1630000   15.9700000  
C 20.5540000   15.6830000   16.9490000  
C 23.2530000   15.7330000   19.6130000  
C 24.4400000   15.0690000   19.3250000  
N 24.2960000   14.4780000   18.0380000  
O 25.3900000   15.5080000   21.4440000  
C 25.5920000   14.9760000   20.1880000  
O 26.5720000   14.3610000   19.8700000  
O 20.8820000   15.0240000   14.6650000  
O 19.2200000   15.9820000   16.6920000  
H 23.0370000   16.1590000   20.6160000  
H 24.4940000   15.8960000   21.3320000  
H 24.9920000   13.8920000   17.6060000  
H 19.9920000   15.4210000   14.6270000  
H 18.7600000   16.2330000   17.5380000  
H 23.2670000   14.2640000   15.4280000  
