76
101 
C 13.1620000   20.0790000   27.0530000  
C 11.9650000   19.2060000   26.9260000  
C 11.8910000   18.3410000   25.8340000  
C 12.9510000   18.0770000   24.9780000  
C 14.1500000   18.8280000   25.0640000  
C 14.1570000   19.8830000   25.9960000  
C 10.8240000   17.4870000   25.4800000  
C 11.3330000   16.7340000   24.4270000  
N 12.5850000   17.1030000   24.1100000  
O  9.3700000   15.4020000   24.2940000  
C 10.5860000   15.6890000   23.7380000  
O 10.9420000   15.0930000   22.7560000  
O 15.1260000   20.8750000   26.0520000  
O 13.3320000   20.7890000   28.0400000  
H 11.0830000   19.3170000   27.5480000  
H  9.9430000   17.4340000   26.0240000  
H  9.4050000   15.9030000   25.1130000  
H 15.6740000   20.6290000   25.2340000  
C 15.2660000   18.5100000   24.2160000  
C 15.3830000   19.1870000   22.9910000  
C 16.4610000   19.0800000   22.1960000  
C 17.5720000   18.1590000   22.4910000  
C 17.3600000   17.2930000   23.6050000  
C 16.2390000   17.5420000   24.4690000  
C 14.4860000   20.1320000   22.3430000  
C 15.0840000   20.5150000   21.1690000  
N 16.3380000   19.8350000   21.0820000  
O 13.3300000   21.8350000   20.2660000  
C 14.6130000   21.4370000   20.1390000  
O 15.2390000   21.9780000   19.2460000  
O 18.0930000   16.2060000   23.9660000  
O 16.0570000   16.8590000   25.6040000  
H 13.6160000   20.4310000   22.8520000  
H 12.8830000   21.3740000   21.0250000  
H 16.9410000   19.8780000   20.2570000  
H 17.6100000   15.6940000   24.6420000  
H 15.2130000   16.8600000   25.9190000  
C 18.6090000   17.8250000   21.4950000  
C 19.9110000   18.3990000   21.6770000  
C 20.8570000   18.2500000   20.7070000  
C 20.6260000   17.6500000   19.4250000  
C 19.2890000   17.1680000   19.2290000  
C 18.3410000   17.1780000   20.2650000  
C 20.5730000   19.1030000   22.7510000  
C 21.8610000   19.3920000   22.2920000  
N 22.0610000   18.8040000   21.0450000  
O 22.5060000   20.6860000   24.2030000  
C 22.8870000   20.1980000   23.0130000  
O 23.9480000   20.4850000   22.5050000  
O 18.9730000   16.5630000   18.0670000  
O 17.0410000   16.7320000   20.0890000  
H 20.1500000   19.3940000   23.7560000  
H 21.5730000   20.3480000   24.3680000  
H 22.9060000   18.7240000   20.5180000  
H 19.6480000   16.6450000   17.3960000  
H 16.9010000   16.4680000   19.1510000  
C 21.6770000   17.6310000   18.4030000  
C 22.7040000   16.6500000   18.4480000  
C 23.6110000   16.6400000   17.4430000  
C 23.8020000   17.6930000   16.4780000  
C 22.8740000   18.7420000   16.5440000  
C 21.8260000   18.6970000   17.4600000  
C 22.8890000   15.5320000   19.3440000  
C 23.9740000   14.8090000   18.7210000  
N 24.4300000   15.5020000   17.5470000  
O 24.1820000   13.1580000   20.4290000  
C 24.6130000   13.5860000   19.2020000  
O 25.4380000   12.9950000   18.5670000  
O 22.9830000   19.7960000   15.6730000  
O 20.9670000   19.8290000   17.4420000  
H 22.4970000   15.3540000   20.3650000  
H 23.4400000   13.7430000   20.6610000  
H 25.2450000   15.2770000   16.9140000  
H 22.1060000   20.2340000   15.5090000  
H 20.5490000   19.8460000   18.3200000  
H 24.6380000   17.6430000   15.6830000  
