76
101 
C 12.7280000   13.6170000   18.9070000  
C 11.7500000   13.5140000   19.9970000  
C 11.8140000   14.3570000   21.0560000  
C 12.8570000   15.2440000   21.2860000  
C 13.8700000   15.4130000   20.2670000  
C 13.8420000   14.5940000   19.1430000  
C 10.9470000   14.4110000   22.2650000  
C 11.5050000   15.4500000   23.0250000  
N 12.7220000   15.8690000   22.4840000  
O  9.8850000   15.2860000   24.9040000  
C 11.0710000   15.7690000   24.4050000  
O 11.7790000   16.4970000   25.0300000  
O 14.7080000   14.6010000   18.0930000  
O 12.6470000   12.9630000   17.8810000  
H 10.8870000   12.9260000   19.8230000  
H 10.1550000   13.7520000   22.5140000  
H  9.4360000   14.9550000   24.1510000  
H 15.1930000   15.4200000   18.1850000  
C 14.9880000   16.2850000   20.4920000  
C 16.0200000   15.8260000   21.2900000  
C 17.0580000   16.6110000   21.6880000  
C 17.1270000   17.9680000   21.3540000  
C 16.1000000   18.4740000   20.5320000  
C 15.0490000   17.6310000   20.1040000  
C 16.1810000   14.5680000   22.0610000  
C 17.4290000   14.6310000   22.6830000  
N 17.9840000   15.9820000   22.4660000  
O 17.4260000   12.3620000   23.4190000  
C 18.0970000   13.5520000   23.3990000  
O 19.2070000   13.6670000   23.9760000  
O 16.0600000   19.8100000   20.4230000  
O 14.0850000   18.1420000   19.2890000  
H 15.5370000   13.7100000   22.0400000  
H 16.6300000   12.4500000   22.7850000  
H 18.8810000   16.4400000   22.7150000  
H 15.2740000   19.9990000   19.8660000  
H 13.5280000   17.3070000   19.0640000  
C 18.2990000   18.7450000   21.9010000  
C 19.4150000   18.7640000   21.0840000  
C 20.5750000   19.3270000   21.5080000  
C 20.7460000   19.9710000   22.7060000  
C 19.5940000   20.0030000   23.5060000  
C 18.3740000   19.3950000   23.1530000  
C 19.6870000   18.1490000   19.8040000  
C 21.0520000   18.3040000   19.5230000  
N 21.5630000   19.0600000   20.6000000  
O 21.1060000   17.1250000   17.4720000  
C 21.8020000   17.8860000   18.3390000  
O 22.9370000   18.2290000   18.1240000  
O 19.5920000   20.6680000   24.6730000  
O 17.3720000   19.3010000   24.0100000  
H 18.9720000   17.8240000   19.0860000  
H 20.1910000   17.1720000   17.9290000  
H 22.5130000   19.5110000   20.5820000  
H 20.3610000   21.2180000   24.8080000  
H 17.3280000   20.1250000   24.4940000  
C 22.0390000   20.6190000   23.0430000  
C 22.4040000   21.8760000   22.5090000  
C 23.6120000   22.4360000   22.7880000  
C 24.5430000   21.8660000   23.6150000  
C 24.1870000   20.5770000   24.1550000  
C 22.9520000   19.9930000   23.9480000  
C 21.5900000   22.7680000   21.7070000  
C 22.3940000   23.8870000   21.4740000  
N 23.6620000   23.6140000   22.0530000  
O 20.6090000   25.2290000   20.5800000  
C 21.9450000   25.1780000   20.8610000  
O 22.7190000   26.0700000   20.6220000  
O 24.9920000   20.0840000   25.1680000  
O 22.5310000   18.9320000   24.6920000  
H 20.5660000   22.5450000   21.3860000  
H 20.2510000   24.5150000   21.1070000  
H 24.4480000   24.2320000   22.1860000  
H 24.5960000   19.2590000   25.5560000  
H 21.6500000   18.6950000   24.3980000  
H 25.5130000   22.2530000   23.7590000  
