76
101 
C 15.0370000   11.7300000   24.0330000  
C 14.1920000   11.1380000   22.8780000  
C 14.1960000   11.7670000   21.6740000  
C 14.8780000   12.9700000   21.4720000  
C 15.5240000   13.6870000   22.5400000  
C 15.6780000   13.0660000   23.7630000  
C 13.5690000   11.4730000   20.5030000  
C 13.9630000   12.4860000   19.6440000  
N 14.8010000   13.4020000   20.2730000  
O 12.5600000   11.7790000   17.9820000  
C 13.5320000   12.5550000   18.2750000  
O 13.9220000   13.2720000   17.3830000  
O 16.4570000   13.5320000   24.7130000  
O 15.0680000   11.1850000   25.1010000  
H 13.6760000   10.2670000   23.1140000  
H 12.9690000   10.5550000   20.3600000  
H 12.2890000   11.3730000   18.8140000  
H 16.5920000   14.4930000   24.6440000  
C 16.2350000   14.9590000   22.1840000  
C 15.5510000   16.1910000   22.0370000  
C 16.2850000   17.3510000   21.7770000  
C 17.7000000   17.4320000   21.7920000  
C 18.3970000   16.1820000   21.8050000  
C 17.6510000   14.9460000   22.0180000  
C 14.1540000   16.6300000   22.1100000  
C 14.1640000   18.0140000   21.9140000  
N 15.4950000   18.4950000   21.6700000  
O 11.8150000   18.0240000   22.0080000  
C 12.9690000   18.8020000   21.9250000  
O 12.9580000   20.0190000   21.8990000  
O 19.7940000   16.1110000   21.8220000  
O 18.3190000   13.7670000   22.1800000  
H 13.2710000   16.0500000   22.2290000  
H 12.1470000   17.1720000   22.0560000  
H 15.7430000   19.5010000   21.4330000  
H 19.9660000   15.2030000   22.0310000  
H 17.7740000   12.9490000   22.3440000  
C 18.4230000   18.7040000   21.5510000  
C 18.5760000   19.5980000   22.6010000  
C 19.2460000   20.7530000   22.3990000  
C 19.8620000   21.1370000   21.2090000  
C 19.6710000   20.2610000   20.0760000  
C 18.9090000   19.0820000   20.2930000  
C 18.2190000   19.5390000   24.0200000  
C 18.5550000   20.7460000   24.5550000  
N 19.1940000   21.4840000   23.6030000  
O 17.9050000   20.3300000   26.7840000  
C 18.4960000   21.1880000   25.9740000  
O 18.9310000   22.2620000   26.3400000  
O 20.2060000   20.6410000   18.8510000  
O 18.6700000   18.2180000   19.2450000  
H 17.6720000   18.7340000   24.5400000  
H 17.4560000   19.6050000   26.2750000  
H 19.7250000   22.2890000   23.7300000  
H 20.8000000   21.4650000   19.0130000  
H 18.8850000   18.5850000   18.3530000  
C 20.7500000   22.3360000   21.1060000  
C 22.1500000   22.1100000   20.9270000  
C 22.9590000   23.2430000   20.8950000  
C 22.5760000   24.5450000   20.9880000  
C 21.1760000   24.7480000   21.1360000  
C 20.2490000   23.6650000   21.2650000  
C 22.9090000   20.9150000   20.6130000  
C 24.2050000   21.3560000   20.5880000  
N 24.2440000   22.7520000   20.7090000  
O 25.1330000   19.0610000   20.1660000  
C 25.3620000   20.4030000   20.2230000  
O 26.5010000   20.7980000   20.0660000  
O 20.7310000   26.0510000   21.2810000  
O 18.8420000   23.9300000   21.5110000  
H 22.5940000   19.9520000   20.2340000  
H 24.2000000   18.8590000   20.4740000  
H 25.0580000   23.2690000   20.4150000  
H 19.7750000   26.1130000   21.1590000  
H 18.2820000   23.1540000   21.2930000  
H 23.3640000   25.3610000   20.9930000  
