76
101 
C 11.5530000   19.7610000   25.3790000  
C 10.7140000   18.5900000   25.1330000  
C 11.1670000   17.5460000   24.4010000  
C 12.5290000   17.4550000   23.9540000  
C 13.4190000   18.4730000   24.2920000  
C 12.9700000   19.5760000   24.9500000  
C 10.4940000   16.3080000   23.9200000  
C 11.5170000   15.5690000   23.3640000  
N 12.7060000   16.3190000   23.3310000  
O 10.1010000   13.8160000   22.9550000  
C 11.4210000   14.1490000   22.9630000  
O 12.3560000   13.4740000   22.6730000  
O 13.7440000   20.6550000   24.9560000  
O 11.2040000   20.7540000   26.0420000  
H  9.7210000   18.7560000   25.3730000  
H  9.4880000   16.0880000   24.1360000  
H  9.6390000   14.6260000   23.0510000  
H 14.4900000   20.3710000   24.4150000  
C 14.7940000   18.4620000   23.8060000  
C 15.0980000   18.8430000   22.4750000  
C 16.3240000   18.5060000   21.9610000  
C 17.4160000   18.1290000   22.7150000  
C 17.1160000   17.8940000   24.0690000  
C 15.8280000   17.9880000   24.6470000  
C 14.2510000   19.1810000   21.3420000  
C 15.0630000   19.1230000   20.2190000  
N 16.3590000   18.6490000   20.5640000  
O 13.3840000   19.8630000   18.6890000  
C 14.6460000   19.4830000   18.8570000  
O 15.4220000   19.4510000   17.9070000  
O 18.1060000   17.5540000   24.9330000  
O 15.5830000   17.7930000   25.9720000  
H 13.2700000   19.5630000   21.2940000  
H 13.0390000   19.7780000   19.5460000  
H 17.2380000   18.7350000   20.0200000  
H 17.7100000   17.2970000   25.8080000  
H 14.6580000   17.7200000   26.0260000  
C 18.7420000   17.8390000   22.1210000  
C 19.4240000   18.8510000   21.5000000  
C 20.5810000   18.5810000   20.7640000  
C 21.2360000   17.2640000   20.6910000  
C 20.5390000   16.2350000   21.4460000  
C 19.2800000   16.4940000   22.1010000  
C 19.0840000   20.2570000   21.3120000  
C 20.1520000   20.7660000   20.5720000  
N 21.0680000   19.7070000   20.2060000  
O 19.5860000   23.0290000   20.9010000  
C 20.5020000   22.2090000   20.3690000  
O 21.5160000   22.6560000   19.9020000  
O 21.1180000   14.9850000   21.4220000  
O 18.6290000   15.4290000   22.6280000  
H 18.3150000   20.8620000   21.8470000  
H 18.8540000   22.4600000   21.1220000  
H 21.9870000   19.7910000   19.8300000  
H 22.1010000   15.0910000   21.1870000  
H 19.1500000   14.6570000   22.4060000  
C 22.3280000   17.0130000   19.7090000  
C 23.6650000   17.2440000   20.0230000  
C 24.5810000   17.3630000   19.0020000  
C 24.3010000   17.1560000   17.6850000  
C 23.0420000   16.6410000   17.4100000  
C 21.9960000   16.6300000   18.4140000  
C 24.3660000   17.5310000   21.2470000  
C 25.6670000   17.9140000   20.9040000  
N 25.8260000   17.7260000   19.5090000  
O 26.4930000   18.5690000   23.1190000  
C 26.7230000   18.5680000   21.7920000  
O 27.7580000   19.0460000   21.3300000  
O 22.6630000   16.3920000   16.1360000  
O 20.7410000   16.2320000   18.0870000  
H 23.9610000   17.7600000   22.2030000  
H 25.5940000   18.3000000   23.1580000  
H 26.7170000   17.6650000   18.9720000  
H 21.6700000   16.1420000   16.2430000  
H 20.2260000   16.2290000   18.9660000  
H 25.0550000   17.3030000   16.8660000  
