76
101 
C 18.1140000   20.7200000   28.5330000  
C 16.9480000   20.2330000   29.3440000  
C 16.0380000   19.4770000   28.5950000  
C 16.1200000   19.0860000   27.2600000  
C 17.2830000   19.5730000   26.4680000  
C 18.2760000   20.3060000   27.1090000  
C 14.8010000   18.9540000   28.9860000  
C 14.3310000   18.2190000   27.8610000  
N 15.1720000   18.3090000   26.8010000  
O 12.3120000   17.4630000   28.9590000  
C 13.1260000   17.3510000   27.9000000  
O 12.8800000   16.5290000   27.0290000  
O 19.3270000   20.8420000   26.5190000  
O 18.9220000   21.4410000   29.0380000  
H 16.7650000   20.5520000   30.4170000  
H 14.4230000   19.0830000   30.0190000  
H 12.7570000   17.9830000   29.6450000  
H 19.3370000   20.3720000   25.6500000  
C 17.4770000   19.2480000   25.0650000  
C 17.5430000   20.2390000   24.1240000  
C 17.7690000   19.9680000   22.8080000  
C 17.9720000   18.6860000   22.2700000  
C 17.9860000   17.6380000   23.2180000  
C 17.7010000   17.9320000   24.5600000  
C 17.4170000   21.6200000   24.2210000  
C 17.3980000   22.1430000   22.9440000  
N 17.8250000   21.0840000   22.0080000  
O 16.9230000   24.2850000   23.6800000  
C 17.2660000   23.5730000   22.6210000  
O 17.5560000   24.0400000   21.4950000  
O 18.3510000   16.3460000   22.9150000  
O 17.6930000   16.8960000   25.4030000  
H 17.1960000   22.2150000   25.1590000  
H 16.7460000   23.7260000   24.4770000  
H 17.9910000   21.1650000   21.0320000  
H 18.5940000   15.9130000   23.7990000  
H 17.3800000   17.1780000   26.2500000  
C 18.1880000   18.4030000   20.8170000  
C 19.4130000   18.1580000   20.2720000  
C 19.5300000   17.6880000   19.0090000  
C 18.5270000   17.4860000   18.0590000  
C 17.2080000   17.6250000   18.6230000  
C 17.0920000   18.1190000   19.9600000  
C 20.7540000   18.3390000   20.7250000  
C 21.6200000   17.8440000   19.7640000  
N 20.8700000   17.4740000   18.6220000  
O 23.6740000   18.3850000   20.9840000  
C 23.0980000   17.9020000   19.8740000  
O 23.7160000   17.5890000   18.8610000  
O 16.1590000   17.3900000   17.8610000  
O 15.8560000   18.4470000   20.5110000  
H 21.0530000   18.7450000   21.6600000  
H 23.0770000   18.7710000   21.6930000  
H 21.2200000   17.2490000   17.6820000  
H 16.3280000   17.4140000   16.8700000  
H 15.2240000   18.2390000   19.7950000  
C 18.8710000   16.8200000   16.7690000  
C 18.6130000   15.4070000   16.6060000  
C 18.9280000   14.7160000   15.4510000  
C 19.3600000   15.3890000   14.2650000  
C 19.6310000   16.7340000   14.4410000  
C 19.2890000   17.4790000   15.5980000  
C 18.0060000   14.4900000   17.5280000  
C 18.0220000   13.2660000   16.8510000  
N 18.5960000   13.4250000   15.5670000  
O 17.2970000   11.9770000   18.7470000  
C 17.6240000   12.0070000   17.4310000  
O 17.5010000   11.0300000   16.7370000  
O 20.2640000   17.5240000   13.4690000  
O 19.5360000   18.7910000   15.7890000  
H 17.5660000   14.7200000   18.5250000  
H 17.5440000   12.8580000   18.9690000  
H 18.8040000   12.6940000   14.9180000  
H 20.3450000   18.4200000   13.8120000  
H 19.1430000   19.0180000   16.7030000  
H 19.5930000   14.9800000   13.3460000  
