76
101 
C 12.6100000   20.0470000   25.9470000  
C 11.5380000   19.0030000   26.2940000  
C 11.6410000   17.7970000   25.6570000  
C 12.5640000   17.5030000   24.6430000  
C 13.6160000   18.4270000   24.2920000  
C 13.6790000   19.6260000   24.9610000  
C 10.8480000   16.6330000   25.7280000  
C 11.3580000   15.7430000   24.7750000  
N 12.4370000   16.3150000   24.1450000  
O  9.5780000   14.1770000   24.9070000  
C 10.7100000   14.4380000   24.3690000  
O 11.2340000   13.6800000   23.5580000  
O 14.5930000   20.5210000   24.7130000  
O 12.5300000   21.1950000   26.3750000  
H 10.9170000   19.3610000   27.0570000  
H 10.0060000   16.4200000   26.3310000  
H  9.3700000   14.7960000   25.5310000  
H 15.0750000   20.2970000   23.9160000  
C 14.7650000   18.0420000   23.4210000  
C 15.0240000   18.8010000   22.3220000  
C 16.2220000   18.6490000   21.6290000  
C 17.2560000   17.6240000   21.9480000  
C 16.8960000   16.7970000   23.0600000  
C 15.6820000   16.9800000   23.7520000  
C 14.3180000   19.8780000   21.6190000  
C 15.2460000   20.3980000   20.7320000  
N 16.3630000   19.5960000   20.6400000  
O 13.8530000   22.3030000   20.3320000  
C 15.0440000   21.7100000   20.0740000  
O 15.8130000   22.2110000   19.2770000  
O 17.7790000   15.8390000   23.5570000  
O 15.4490000   16.2310000   24.8500000  
H 13.3420000   20.2110000   21.8260000  
H 13.4160000   21.7210000   20.9930000  
H 17.2230000   19.7870000   20.1550000  
H 17.3990000   15.4030000   24.3990000  
H 14.5520000   16.2910000   24.9340000  
C 18.4920000   17.4290000   21.1220000  
C 19.3120000   18.5790000   21.0140000  
C 20.4370000   18.5070000   20.2400000  
C 20.9200000   17.3570000   19.5240000  
C 20.0780000   16.1810000   19.7230000  
C 18.8550000   16.1710000   20.4500000  
C 19.3300000   19.9240000   21.4930000  
C 20.4360000   20.5930000   20.9640000  
N 21.0990000   19.7170000   20.1650000  
O 19.9370000   22.7580000   21.8970000  
C 20.8190000   22.0360000   21.1140000  
O 21.7120000   22.5230000   20.5110000  
O 20.6300000   14.9980000   19.2310000  
O 18.2010000   15.0060000   20.7160000  
H 18.6470000   20.3680000   22.2030000  
H 19.2340000   22.1130000   22.1370000  
H 21.9770000   19.8630000   19.7520000  
H 21.3440000   15.2000000   18.5960000  
H 18.7910000   14.2600000   20.4320000  
C 22.2210000   17.2650000   18.7620000  
C 23.4320000   17.3580000   19.4590000  
C 24.6560000   17.2210000   18.8010000  
C 24.7620000   16.9090000   17.4510000  
C 23.5560000   16.7670000   16.7720000  
C 22.3030000   17.1160000   17.3690000  
C 23.7040000   17.4880000   20.8750000  
C 25.0620000   17.3190000   21.0470000  
N 25.6150000   17.1570000   19.7820000  
O 25.0220000   17.5950000   23.3900000  
C 25.8430000   17.3360000   22.3230000  
O 27.0690000   17.2390000   22.5160000  
O 23.6260000   16.2070000   15.5100000  
O 21.1760000   16.8530000   16.6860000  
H 22.9170000   17.6200000   21.6510000  
H 24.1690000   17.6760000   23.0010000  
H 26.6570000   17.3260000   19.7410000  
H 22.7040000   16.2370000   15.2950000  
H 20.4220000   17.1870000   17.2010000  
H 25.7100000   16.7620000   17.0150000  
