76
101 
C 11.1440000   15.3360000   21.3670000  
C 10.1720000   16.2660000   22.0070000  
C 10.5490000   17.4240000   22.5470000  
C 11.9290000   17.8600000   22.5460000  
C 12.9720000   17.0140000   21.9280000  
C 12.5730000   15.8090000   21.3110000  
C  9.8100000   18.3370000   23.3050000  
C 10.7780000   19.3120000   23.5730000  
N 12.0790000   19.0110000   23.1630000  
O  9.1740000   20.8110000   24.4480000  
C 10.4820000   20.5710000   24.3280000  
O 11.2940000   21.3910000   24.8130000  
O 13.3500000   15.0290000   20.6230000  
O 10.6440000   14.3580000   20.7880000  
H  9.1860000   15.9140000   22.0920000  
H  8.7510000   18.3410000   23.5900000  
H  8.6490000   20.1140000   24.0720000  
H 14.1840000   15.4430000   20.8130000  
C 14.3660000   17.5340000   21.8990000  
C 15.3750000   16.8020000   22.5260000  
C 16.6800000   17.2660000   22.5790000  
C 17.1410000   18.5090000   22.0400000  
C 16.1250000   19.2650000   21.4070000  
C 14.7460000   18.8000000   21.3310000  
C 15.3420000   15.5610000   23.2420000  
C 16.6810000   15.2240000   23.5410000  
N 17.4560000   16.3670000   23.2220000  
O 16.3500000   13.0490000   24.4730000  
C 17.1490000   14.0690000   24.2520000  
O 18.3250000   13.9830000   24.6080000  
O 16.4100000   20.4060000   20.7560000  
O 13.8580000   19.4990000   20.6150000  
H 14.4920000   14.9770000   23.5280000  
H 15.4770000   13.4170000   24.2130000  
H 18.4550000   16.4390000   23.2800000  
H 15.5040000   20.8560000   20.6280000  
H 12.9970000   18.9760000   20.5880000  
C 18.6090000   18.7930000   22.0800000  
C 19.5160000   17.9100000   21.4220000  
C 20.8630000   18.1430000   21.3840000  
C 21.4800000   19.2360000   22.0520000  
C 20.6150000   20.1210000   22.7600000  
C 19.2430000   19.9320000   22.6530000  
C 19.4200000   16.6540000   20.6180000  
C 20.6820000   16.3060000   20.1780000  
N 21.5840000   17.1700000   20.7970000  
O 19.9050000   14.3930000   18.7880000  
C 20.9150000   15.2040000   19.1980000  
O 22.0670000   14.9600000   18.8630000  
O 21.1140000   21.2530000   23.2450000  
O 18.5100000   20.8430000   23.3480000  
H 18.5220000   16.0510000   20.4470000  
H 19.0780000   14.7180000   19.2270000  
H 22.6250000   17.2920000   20.6500000  
H 22.0550000   21.3170000   23.0520000  
H 19.1110000   21.5070000   23.7540000  
C 22.9310000   19.4140000   21.9050000  
C 23.5670000   19.5290000   20.6790000  
C 24.8590000   19.8940000   20.5460000  
C 25.7260000   20.1140000   21.6290000  
C 25.1550000   19.9020000   22.8510000  
C 23.7580000   19.6480000   23.0310000  
C 22.9790000   19.5630000   19.3430000  
C 23.9930000   19.8270000   18.4190000  
N 25.1360000   20.0660000   19.2100000  
O 22.8430000   19.3240000   16.5940000  
C 24.0160000   19.6220000   17.0100000  
O 25.0990000   19.7150000   16.3760000  
O 25.9920000   20.0210000   23.9390000  
O 23.2810000   19.3540000   24.2690000  
H 21.9710000   19.3200000   19.0520000  
H 22.2800000   18.9540000   17.2610000  
H 26.0860000   20.1180000   18.9100000  
H 25.4260000   19.7080000   24.7210000  
H 22.3850000   19.0790000   23.9850000  
H 26.7810000   20.4110000   21.5830000  
