76
101 
C 20.8320000   11.3960000   24.0920000  
C 19.6700000   10.5140000   23.7390000  
C 18.5230000   11.0800000   23.2560000  
C 18.3250000   12.4080000   22.9180000  
C 19.4470000   13.2910000   23.1270000  
C 20.6170000   12.8050000   23.7980000  
C 17.4180000   10.3870000   22.7470000  
C 16.6640000   11.2970000   22.0010000  
N 17.2180000   12.5600000   22.1670000  
O 15.1550000    9.6480000   21.1310000  
C 15.5810000   10.9690000   21.1000000  
O 14.8990000   11.7350000   20.4390000  
O 21.7020000   13.5500000   24.0990000  
O 21.8500000   10.9340000   24.5430000  
H 19.7790000    9.4660000   23.9340000  
H 17.3380000    9.3010000   22.6950000  
H 15.8350000    9.0760000   21.5360000  
H 21.5030000   14.5530000   23.8870000  
C 19.2670000   14.6360000   22.7910000  
C 18.9630000   15.6020000   23.7070000  
C 18.5190000   16.8050000   23.2130000  
C 18.3330000   17.2190000   21.8690000  
C 18.6350000   16.2320000   20.9230000  
C 19.0860000   14.9680000   21.3790000  
C 19.0620000   15.6660000   25.1720000  
C 18.7830000   16.9570000   25.5390000  
N 18.3120000   17.5980000   24.3250000  
O 18.9250000   16.6780000   27.8870000  
C 18.8030000   17.5330000   26.8890000  
O 18.8260000   18.7540000   27.0440000  
O 18.5960000   16.6280000   19.6450000  
O 19.3270000   14.0330000   20.4020000  
H 19.4890000   14.8990000   25.8640000  
H 18.9400000   15.8040000   27.4740000  
H 17.9720000   18.5410000   24.3350000  
H 19.0550000   15.9440000   19.1350000  
H 19.4100000   13.1720000   20.7900000  
C 17.8290000   18.6140000   21.6410000  
C 18.4600000   19.8060000   21.9800000  
C 17.8770000   20.9820000   21.5740000  
C 16.7190000   21.1610000   20.8040000  
C 16.0710000   19.9710000   20.4700000  
C 16.6830000   18.7720000   20.8090000  
C 19.7530000   20.1140000   22.6350000  
C 19.7230000   21.5020000   22.7280000  
N 18.7010000   22.0170000   21.8900000  
O 21.8370000   21.7920000   23.9060000  
C 20.8070000   22.3960000   23.1880000  
O 20.7810000   23.6160000   23.0800000  
O 14.8850000   19.9650000   19.7300000  
O 16.0220000   17.6940000   20.3690000  
H 20.5250000   19.4070000   22.7570000  
H 21.6250000   20.8680000   23.9030000  
H 18.6070000   22.9880000   21.5200000  
H 14.7960000   20.8590000   19.4190000  
H 16.4060000   16.9050000   20.8770000  
C 16.1880000   22.5000000   20.3800000  
C 16.5650000   22.9550000   19.0880000  
C 16.4070000   24.2740000   18.7330000  
C 15.7230000   25.1400000   19.5670000  
C 15.2550000   24.6900000   20.8230000  
C 15.4980000   23.3970000   21.2540000  
C 17.1050000   22.3080000   17.9460000  
C 17.2490000   23.2450000   16.9400000  
N 16.8290000   24.4740000   17.4410000  
O 18.1220000   21.7790000   15.2950000  
C 17.7640000   23.0410000   15.5990000  
O 17.9420000   23.9550000   14.7710000  
O 14.5960000   25.6690000   21.6320000  
O 15.2170000   23.0200000   22.4990000  
H 17.3860000   21.2610000   17.8290000  
H 18.0470000   21.2920000   16.1350000  
H 16.6940000   25.3270000   16.8890000  
H 14.3070000   25.1560000   22.3950000  
H 15.6330000   22.1810000   22.7180000  
H 15.5610000   26.1910000   19.2530000  
