76
101 
C 20.4090000   15.9490000   28.1630000  
C 21.4890000   15.0040000   28.0160000  
C 21.9620000   14.6140000   26.7620000  
C 21.3810000   15.0030000   25.5970000  
C 20.2820000   15.9640000   25.6710000  
C 19.7640000   16.3900000   26.8650000  
C 22.9870000   13.7240000   26.4180000  
C 22.9900000   13.7170000   24.9980000  
N 21.8410000   14.4380000   24.5350000  
O 24.8190000   12.1230000   24.7000000  
C 23.8850000   12.9630000   24.1100000  
O 23.7800000   12.9920000   22.9100000  
O 18.6780000   17.1590000   26.9930000  
O 20.0280000   16.2370000   29.2700000  
H 22.0040000   14.6480000   28.9330000  
H 23.6310000   13.3130000   27.2380000  
H 24.8550000   12.2560000   25.6470000  
H 18.2980000   17.3060000   26.1000000  
C 19.6760000   16.4760000   24.4220000  
C 18.3640000   16.1770000   24.1190000  
C 17.8420000   16.5780000   22.9200000  
C 18.5040000   17.3310000   21.8670000  
C 19.8600000   17.5840000   22.2030000  
C 20.4170000   17.2720000   23.5040000  
C 17.3050000   15.4510000   24.8290000  
C 16.1990000   15.4680000   23.9440000  
N 16.5060000   16.1960000   22.7630000  
O 14.9340000   14.0520000   25.4870000  
C 14.8870000   14.8560000   24.3550000  
O 13.8410000   14.9460000   23.6930000  
O 20.6160000   18.4080000   21.4250000  
O 21.7720000   17.5400000   23.7530000  
H 17.2060000   15.1300000   25.8740000  
H 15.9050000   13.9420000   25.6490000  
H 15.8740000   16.3730000   21.9940000  
H 21.4970000   18.3650000   21.7700000  
H 22.2060000   17.0270000   24.4680000  
C 17.8830000   17.8320000   20.5860000  
C 16.7660000   18.6800000   20.6950000  
C 16.1160000   19.3100000   19.6650000  
C 16.5920000   19.1410000   18.3680000  
C 17.7280000   18.2700000   18.2370000  
C 18.3650000   17.6020000   19.2800000  
C 16.1910000   19.2090000   21.8550000  
C 15.2360000   20.1260000   21.4870000  
N 15.1070000   20.1690000   20.0610000  
O 14.6710000   20.7090000   23.8130000  
C 14.4640000   21.0150000   22.4720000  
O 13.7360000   21.8850000   22.1110000  
O 18.2190000   18.0390000   17.0190000  
O 19.2810000   16.6170000   19.0480000  
H 16.2680000   18.8690000   22.8680000  
H 15.1940000   19.8710000   23.8220000  
H 14.4890000   20.7600000   19.5710000  
H 17.6350000   18.5520000   16.3530000  
H 19.8460000   16.5350000   19.8380000  
C 16.0740000   19.9920000   17.2230000  
C 16.1850000   21.4340000   17.2690000  
C 15.7280000   22.3070000   16.3270000  
C 15.1230000   21.7910000   15.1590000  
C 14.9910000   20.3980000   15.0510000  
C 15.3570000   19.4960000   16.0800000  
C 16.9150000   22.2090000   18.2250000  
C 16.5800000   23.5380000   18.0290000  
N 15.8270000   23.5930000   16.7740000  
O 17.4150000   24.5190000   20.1060000  
C 16.8550000   24.7670000   18.8620000  
O 16.5340000   25.9120000   18.5360000  
O 14.2670000   19.9470000   14.0320000  
O 15.2180000   18.1560000   15.8100000  
H 17.4540000   21.8910000   19.1280000  
H 17.5000000   23.5640000   20.2240000  
H 15.4680000   24.5160000   16.3420000  
H 14.2230000   18.9520000   14.1390000  
H 15.7160000   17.5460000   16.4270000  
H 14.7490000   22.5230000   14.4590000  
