76
101 
C 21.6300000   16.6070000   28.1980000  
C 21.2270000   15.2030000   28.6400000  
C 20.5900000   14.4180000   27.7090000  
C 20.1210000   14.8900000   26.4940000  
C 20.2010000   16.2730000   26.1640000  
C 20.9470000   17.1120000   26.9270000  
C 20.2620000   13.0600000   27.7120000  
C 19.5420000   12.8810000   26.5880000  
N 19.4210000   14.0010000   25.8170000  
O 19.1630000   10.6280000   27.0340000  
C 18.8480000   11.6240000   26.1450000  
O 18.1650000   11.5500000   25.1260000  
O 21.2080000   18.3950000   26.6980000  
O 22.3180000   17.3310000   28.9170000  
H 21.4290000   14.9210000   29.6430000  
H 20.4270000   12.3180000   28.5070000  
H 19.5950000   11.0980000   27.8380000  
H 20.3960000   18.8090000   26.3160000  
C 19.6780000   16.7570000   24.8640000  
C 18.4080000   17.3870000   24.9220000  
C 17.8510000   17.8670000   23.7360000  
C 18.3520000   17.6640000   22.4720000  
C 19.6880000   17.1280000   22.4100000  
C 20.2570000   16.6290000   23.6530000  
C 17.4300000   17.8430000   25.9680000  
C 16.4250000   18.5640000   25.3310000  
N 16.6450000   18.5900000   23.9350000  
O 15.1190000   18.7820000   27.3610000  
C 15.2460000   19.1110000   26.0590000  
O 14.4380000   19.8860000   25.5920000  
O 20.3110000   17.0010000   21.1920000  
O 21.4680000   16.1760000   23.5890000  
H 17.4450000   17.6000000   27.0290000  
H 15.7750000   18.0840000   27.5190000  
H 15.9450000   18.8980000   23.2520000  
H 21.2220000   16.7370000   21.3570000  
H 21.6000000   15.6670000   24.3640000  
C 17.6120000   18.1760000   21.2090000  
C 17.6050000   19.5390000   20.7800000  
C 17.0650000   19.8170000   19.5780000  
C 16.4250000   18.9340000   18.6720000  
C 16.3540000   17.6130000   19.1650000  
C 16.9240000   17.1940000   20.3860000  
C 18.1320000   20.7650000   21.2810000  
C 18.0590000   21.6870000   20.2170000  
N 17.2820000   21.1310000   19.1430000  
O 18.9930000   23.4840000   21.4150000  
C 18.5960000   23.0680000   20.1570000  
O 18.6090000   23.7380000   19.0960000  
O 15.6780000   16.6800000   18.4150000  
O 16.8520000   15.8300000   20.6120000  
H 18.5960000   21.0190000   22.2540000  
H 18.7500000   22.6040000   21.8440000  
H 16.9980000   21.6450000   18.3000000  
H 15.3370000   17.0970000   17.5840000  
H 16.6720000   15.4060000   19.7050000  
C 15.7840000   19.3190000   17.3940000  
C 16.5780000   19.5620000   16.2310000  
C 15.9500000   20.0740000   15.1010000  
C 14.5410000   20.2490000   14.9810000  
C 13.7500000   19.9720000   16.0770000  
C 14.3600000   19.4390000   17.2630000  
C 18.0010000   19.6970000   16.0190000  
C 18.1610000   20.1430000   14.6810000  
N 16.8720000   20.3900000   14.1330000  
O 20.5490000   20.2320000   14.6750000  
C 19.4120000   20.5320000   14.0650000  
O 19.5270000   21.0770000   12.9810000  
O 12.3840000   20.1700000   16.0000000  
O 13.4590000   19.1900000   18.2470000  
H 18.8610000   19.6370000   16.7480000  
H 20.2840000   19.7310000   15.5270000  
H 16.7470000   20.8120000   13.2030000  
H 12.0290000   20.1600000   16.9140000  
H 13.9750000   18.7360000   18.9580000  
H 14.0300000   20.5420000   14.0600000  
