76
101 
C 21.6420000   14.0660000   26.6490000  
C 21.7820000   12.6340000   26.2940000  
C 21.2980000   12.2340000   25.1010000  
C 20.5090000   13.0270000   24.2400000  
C 20.4020000   14.4950000   24.5390000  
C 20.8510000   14.9390000   25.7460000  
C 21.4100000   10.9990000   24.4570000  
C 20.5480000   11.1080000   23.2970000  
N 20.0870000   12.4390000   23.1920000  
O 20.8340000    8.8480000   22.8420000  
C 20.1500000    9.9860000   22.4830000  
O 19.3450000   10.0430000   21.5900000  
O 20.7680000   16.2370000   26.1100000  
O 22.1870000   14.4730000   27.6350000  
H 22.3860000   12.0620000   26.9940000  
H 21.9780000   10.1820000   24.8860000  
H 21.5330000    9.0800000   23.4940000  
H 20.2240000   16.7870000   25.5060000  
C 19.7050000   15.3670000   23.6080000  
C 18.3460000   15.7390000   23.7110000  
C 17.7420000   16.7040000   22.9480000  
C 18.2710000   17.1960000   21.7680000  
C 19.5940000   16.7940000   21.5810000  
C 20.3370000   15.9060000   22.4760000  
C 17.4580000   15.4420000   24.8120000  
C 16.3330000   16.2380000   24.6430000  
N 16.4900000   17.0220000   23.4810000  
O 15.1230000   15.2950000   26.4380000  
C 15.1620000   16.2940000   25.5240000  
O 14.3550000   17.2170000   25.4710000  
O 20.2540000   17.2530000   20.4860000  
O 21.5610000   15.4940000   22.1570000  
H 17.6890000   14.8830000   25.6980000  
H 15.9300000   14.8460000   26.2060000  
H 15.9860000   17.8530000   23.3820000  
H 20.9220000   16.6860000   20.1580000  
H 21.7710000   14.7280000   22.7620000  
C 17.5850000   18.2180000   20.9190000  
C 17.6640000   19.5280000   21.3220000  
C 17.0850000   20.4770000   20.5320000  
C 16.2440000   20.3010000   19.4160000  
C 16.0470000   18.9140000   19.0700000  
C 16.8360000   17.8870000   19.7200000  
C 18.1610000   20.2240000   22.4460000  
C 18.0360000   21.5890000   22.1870000  
N 17.3180000   21.7730000   20.9940000  
O 19.4620000   22.3740000   23.9660000  
C 18.5630000   22.7220000   23.0220000  
O 18.3230000   23.8710000   22.7670000  
O 15.2410000   18.6370000   17.9750000  
O 16.7530000   16.5580000   19.4630000  
H 18.6830000   19.7270000   23.2770000  
H 19.5430000   21.4050000   23.9740000  
H 16.9330000   22.5770000   20.6230000  
H 15.2470000   19.5210000   17.5010000  
H 17.2480000   16.0310000   20.0790000  
C 15.5100000   21.4460000   18.7740000  
C 16.1360000   22.5270000   18.0750000  
C 15.3550000   23.5410000   17.5550000  
C 13.9810000   23.6550000   17.7360000  
C 13.3270000   22.6390000   18.4320000  
C 14.0890000   21.4780000   18.7980000  
C 17.4600000   22.8690000   17.8700000  
C 17.5030000   24.0370000   17.1230000  
N 16.1870000   24.4650000   16.9790000  
O 19.8580000   24.0570000   17.0760000  
C 18.7450000   24.6930000   16.7660000  
O 18.7940000   25.7940000   16.2350000  
O 11.9910000   22.7460000   18.7460000  
O 13.4210000   20.3920000   19.1280000  
H 18.2900000   22.2600000   18.2300000  
H 19.5080000   23.2680000   17.4930000  
H 15.9380000   25.3540000   16.5780000  
H 11.9570000   22.1140000   19.5240000  
H 14.0950000   19.7740000   19.5610000  
H 13.3580000   24.5430000   17.4890000  
