76
101 
C 18.8770000   16.4340000   29.0160000  
C 18.5690000   17.7650000   29.5960000  
C 18.2660000   18.8480000   28.8170000  
C 18.2960000   18.8240000   27.4100000  
C 18.5340000   17.5570000   26.7420000  
C 18.8320000   16.4140000   27.4970000  
C 17.9990000   20.1210000   29.2140000  
C 17.8300000   20.7830000   27.9970000  
N 17.9740000   19.9430000   26.8630000  
O 17.4350000   22.8680000   29.1790000  
C 17.4020000   22.2000000   28.0090000  
O 17.1480000   22.7060000   26.9690000  
O 19.1890000   15.2630000   27.0090000  
O 19.0650000   15.4580000   29.7050000  
H 18.5040000   17.7940000   30.6710000  
H 17.9780000   20.5230000   30.2120000  
H 17.8010000   22.2830000   29.8370000  
H 19.2770000   15.3500000   26.0750000  
C 18.4410000   17.4790000   25.2620000  
C 19.6080000   17.4830000   24.4980000  
C 19.5250000   17.5060000   23.1500000  
C 18.3410000   17.6850000   22.4280000  
C 17.1380000   17.6640000   23.1830000  
C 17.2030000   17.5700000   24.5850000  
C 20.9860000   17.6360000   24.8560000  
C 21.7190000   17.8820000   23.7070000  
N 20.7790000   17.6800000   22.6060000  
O 23.9020000   18.1940000   24.6500000  
C 23.1980000   18.0840000   23.5450000  
O 23.7740000   18.1260000   22.4730000  
O 15.8510000   17.8000000   22.6940000  
O 16.1280000   17.6940000   25.4990000  
H 21.3680000   17.7140000   25.8770000  
H 23.2480000   17.8760000   25.2640000  
H 20.9530000   17.6750000   21.6200000  
H 15.3150000   18.1640000   23.4020000  
H 16.3340000   17.0080000   26.1300000  
C 18.3640000   17.9400000   20.9380000  
C 17.8980000   16.9670000   20.0760000  
C 17.8650000   17.0840000   18.7470000  
C 18.1120000   18.3210000   18.0970000  
C 18.7330000   19.3030000   18.9750000  
C 18.8190000   19.1160000   20.3690000  
C 17.5570000   15.5970000   20.2960000  
C 17.1500000   15.0410000   19.0450000  
N 17.3640000   15.9990000   18.0330000  
O 16.7420000   12.7170000   19.6650000  
C 16.7440000   13.6090000   18.6990000  
O 16.3470000   13.3280000   17.5680000  
O 19.0080000   20.5330000   18.4470000  
O 19.2910000   20.0570000   21.2540000  
H 17.4790000   15.1420000   21.2820000  
H 16.9700000   13.1880000   20.4510000  
H 17.0390000   15.9900000   17.0760000  
H 18.6510000   20.5660000   17.5730000  
H 19.2270000   19.6890000   22.1390000  
C 17.8040000   18.5170000   16.6320000  
C 16.4760000   18.4620000   16.1900000  
C 16.1430000   18.7400000   14.8660000  
C 17.0760000   19.0220000   13.9520000  
C 18.4550000   19.0560000   14.3840000  
C 18.8240000   18.8410000   15.7220000  
C 15.2870000   18.2560000   17.0320000  
C 14.2450000   18.5940000   16.1740000  
N 14.7140000   18.8000000   14.8190000  
O 12.6020000   18.2580000   17.9010000  
C 12.8520000   18.5970000   16.5410000  
O 12.0160000   18.9120000   15.7630000  
O 19.4280000   19.2870000   13.4730000  
O 20.1540000   18.8050000   16.0250000  
H 15.1620000   18.2490000   18.1660000  
H 13.5130000   18.2680000   18.3210000  
H 14.1130000   18.8780000   14.0160000  
H 20.2800000   19.3240000   13.9660000  
H 20.1620000   18.0610000   16.7110000  
H 16.8110000   19.3270000   12.9450000  
