76
101 
C 17.6200000   21.3860000   28.4970000  
C 16.2970000   21.1000000   29.0960000  
C 15.4650000   20.2280000   28.4270000  
C 15.7180000   19.6120000   27.1960000  
C 16.9790000   19.8200000   26.5320000  
C 17.8240000   20.7740000   27.1200000  
C 14.1600000   19.9160000   28.7290000  
C 13.7240000   19.0450000   27.7330000  
N 14.6990000   18.8700000   26.7650000  
O 11.4800000   18.8770000   28.4700000  
C 12.3820000   18.5030000   27.5550000  
O 12.1400000   17.7000000   26.7070000  
O 19.0300000   21.0190000   26.5760000  
O 18.4370000   22.1360000   29.0100000  
H 16.1340000   21.4710000   30.0850000  
H 13.6050000   20.3780000   29.5520000  
H 11.9670000   19.3620000   29.1710000  
H 19.0140000   20.4230000   25.7790000  
C 17.2340000   19.1410000   25.2470000  
C 17.3310000   19.8760000   24.0160000  
C 17.4500000   19.2400000   22.8540000  
C 17.7160000   17.8260000   22.6970000  
C 17.5500000   17.0540000   23.8940000  
C 17.3150000   17.7330000   25.1070000  
C 17.3820000   21.3000000   23.7310000  
C 17.5300000   21.4340000   22.3650000  
N 17.6410000   20.1260000   21.7960000  
O 17.7080000   23.8380000   22.3700000  
C 17.4820000   22.6820000   21.6120000  
O 17.4650000   22.7060000   20.3900000  
O 17.5440000   15.7280000   23.9130000  
O 17.2760000   16.9820000   26.2460000  
H 17.0700000   22.0730000   24.4820000  
H 17.4750000   23.5080000   23.2570000  
H 17.8700000   19.8820000   20.8510000  
H 16.9700000   15.4120000   24.6940000  
H 17.1440000   17.5920000   26.9540000  
C 18.1330000   17.2170000   21.3470000  
C 19.2340000   17.7520000   20.6290000  
C 19.3770000   17.4870000   19.3600000  
C 18.5670000   16.6820000   18.5640000  
C 17.4040000   16.1460000   19.1870000  
C 17.2350000   16.4140000   20.5770000  
C 20.2770000   18.6860000   21.0130000  
C 21.0870000   18.8120000   19.8630000  
N 20.5270000   17.9940000   18.8770000  
O 22.7010000   20.4070000   20.7080000  
C 22.3120000   19.6090000   19.6650000  
O 22.9570000   19.6730000   18.6310000  
O 16.3890000   15.4420000   18.5840000  
O 16.1110000   15.9980000   21.1900000  
H 20.3780000   19.2190000   21.9640000  
H 22.2660000   19.8500000   21.4380000  
H 20.9480000   17.7100000   17.9960000  
H 16.7770000   14.8170000   17.9070000  
H 15.7190000   15.4730000   20.5080000  
C 18.8130000   16.4670000   17.0480000  
C 19.5120000   15.3240000   16.6450000  
C 19.6980000   14.9800000   15.3200000  
C 19.1200000   15.7470000   14.3310000  
C 18.4120000   16.8840000   14.6680000  
C 18.1370000   17.1880000   16.0470000  
C 20.1900000   14.3130000   17.4420000  
C 20.6870000   13.3670000   16.5610000  
N 20.3780000   13.7570000   15.2630000  
O 21.7500000   11.9040000   18.1280000  
C 21.4340000   12.1460000   16.8270000  
O 21.8090000   11.3140000   16.0070000  
O 17.6980000   17.5160000   13.6740000  
O 17.3100000   18.2020000   16.4350000  
H 20.5700000   14.3980000   18.5020000  
H 21.4120000   12.6240000   18.6080000  
H 20.6750000   13.2640000   14.4110000  
H 16.9190000   17.8110000   14.1880000  
H 17.2560000   18.2620000   17.4450000  
H 19.2100000   15.3520000   13.3280000  
