76
101 
C 11.6100000   21.6330000   23.4400000  
C 11.1750000   21.1560000   24.7880000  
C 12.0000000   20.3090000   25.4950000  
C 13.2140000   19.7720000   24.9180000  
C 13.5600000   20.0650000   23.5950000  
C 12.8080000   21.0010000   22.8760000  
C 12.0420000   19.9610000   26.8050000  
C 13.1400000   19.0690000   26.9450000  
N 13.8530000   19.0060000   25.8040000  
O 12.6330000   18.6820000   29.2180000  
C 13.5090000   18.3540000   28.1890000  
O 14.4950000   17.6210000   28.3310000  
O 13.1280000   21.5050000   21.7060000  
O 10.9750000   22.5200000   22.9160000  
H 10.2850000   21.6840000   25.0950000  
H 11.2920000   20.1230000   27.5340000  
H 12.0920000   19.4080000   28.8960000  
H 14.0680000   21.1970000   21.4500000  
C 14.8350000   19.5690000   23.0730000  
C 14.9250000   18.2150000   22.6610000  
C 16.1210000   17.6980000   22.2730000  
C 17.3760000   18.3610000   22.1450000  
C 17.2880000   19.7120000   22.5840000  
C 16.0640000   20.2730000   23.0530000  
C 13.9750000   17.0490000   22.6110000  
C 14.6810000   15.9550000   22.2180000  
N 16.0010000   16.3420000   21.9730000  
O 12.7150000   14.5710000   22.1770000  
C 14.0600000   14.6420000   21.9120000  
O 14.6620000   13.6730000   21.5290000  
O 18.4200000   20.5250000   22.4590000  
O 16.0710000   21.4840000   23.6550000  
H 12.9130000   17.0700000   22.8360000  
H 12.4660000   15.2650000   22.8010000  
H 16.7570000   15.8030000   21.6490000  
H 17.9790000   21.3630000   22.7040000  
H 15.1430000   21.7410000   23.9090000  
C 18.6570000   17.7330000   21.5830000  
C 18.7900000   17.4900000   20.2370000  
C 20.0210000   17.1840000   19.6860000  
C 21.2140000   16.8530000   20.3370000  
C 21.0030000   17.1460000   21.6940000  
C 19.8230000   17.6100000   22.3280000  
C 17.9060000   17.5520000   19.1120000  
C 18.5170000   17.1960000   17.9680000  
N 19.8140000   16.8900000   18.3310000  
O 16.7810000   17.4740000   16.4130000  
C 17.9600000   17.0580000   16.6140000  
O 18.5450000   16.6780000   15.6430000  
O 22.1070000   16.9830000   22.4980000  
O 19.8120000   17.8750000   23.7050000  
H 16.8940000   17.7730000   19.0970000  
H 16.4530000   17.7160000   17.2890000  
H 20.4880000   16.5760000   17.6240000  
H 22.9030000   16.7980000   21.9850000  
H 20.7690000   17.9240000   23.9380000  
C 22.5230000   16.4880000   19.7290000  
C 23.6400000   17.3330000   19.7260000  
C 24.8130000   16.8950000   19.0770000  
C 24.9450000   15.6720000   18.4080000  
C 23.8400000   14.7870000   18.4820000  
C 22.6640000   15.2150000   19.1810000  
C 23.8200000   18.6720000   20.1660000  
C 25.0590000   19.0210000   19.7480000  
N 25.7040000   17.9120000   19.1100000  
O 25.1690000   21.2860000   20.3460000  
C 25.8440000   20.2300000   19.9350000  
O 26.9980000   20.4130000   19.6180000  
O 23.9680000   13.4970000   18.0860000  
O 21.6590000   14.2430000   19.3570000  
H 23.1280000   19.3550000   20.7530000  
H 24.2400000   20.9820000   20.2670000  
H 26.6030000   17.8460000   18.7080000  
H 23.1250000   12.9760000   18.1300000  
H 21.1470000   14.3970000   20.1560000  
H 25.8830000   15.3330000   18.0710000  
