76
101 
C 14.7330000   18.0240000   28.7860000  
C 14.8400000   19.4890000   29.0080000  
C 15.2270000   20.3500000   28.0640000  
C 15.6840000   19.9390000   26.8060000  
C 15.6470000   18.4950000   26.5270000  
C 15.0470000   17.6190000   27.3870000  
C 15.7570000   21.6160000   28.1710000  
C 16.3080000   21.9570000   26.9770000  
N 16.3610000   20.8450000   26.1070000  
O 17.0570000   24.2020000   27.5290000  
C 17.0470000   23.2210000   26.6550000  
O 17.7980000   23.2490000   25.6810000  
O 14.8380000   16.3060000   27.0850000  
O 14.2240000   17.1880000   29.5630000  
H 14.7050000   19.9450000   29.9530000  
H 15.7090000   22.1650000   29.0740000  
H 16.2130000   24.0080000   28.1250000  
H 15.4120000   15.9970000   26.3620000  
C 16.0450000   18.1840000   25.1700000  
C 17.3150000   17.6470000   24.8440000  
C 17.7510000   17.5190000   23.5740000  
C 17.0150000   17.8590000   22.4660000  
C 15.7210000   18.4110000   22.7350000  
C 15.2490000   18.5740000   24.0670000  
C 18.4210000   17.2890000   25.6660000  
C 19.5440000   16.9740000   24.8030000  
N 19.1120000   17.1340000   23.4790000  
O 21.2020000   16.3360000   26.4680000  
C 20.8430000   16.3890000   25.1440000  
O 21.4890000   15.9760000   24.2260000  
O 14.9490000   18.6830000   21.6730000  
O 13.9730000   19.0340000   24.2620000  
H 18.4300000   17.2200000   26.7250000  
H 20.5190000   16.8710000   26.9380000  
H 19.6850000   16.9480000   22.6550000  
H 14.1580000   19.1740000   21.9970000  
H 13.9150000   19.1110000   25.2100000  
C 17.6030000   17.7970000   21.0520000  
C 17.7630000   16.5490000   20.3190000  
C 18.4410000   16.5000000   19.1250000  
C 19.2100000   17.5830000   18.6330000  
C 19.0160000   18.8280000   19.3150000  
C 18.2980000   18.8890000   20.5460000  
C 17.3730000   15.1790000   20.6130000  
C 17.9390000   14.3390000   19.6570000  
N 18.5310000   15.1710000   18.6720000  
O 17.3270000   12.3200000   20.7050000  
C 17.9780000   12.8770000   19.6690000  
O 18.5880000   12.2310000   18.8710000  
O 19.6260000   19.9340000   18.7830000  
O 18.3030000   20.0590000   21.2090000  
H 16.7710000   14.9350000   21.4560000  
H 16.9890000   13.0450000   21.2060000  
H 18.9990000   14.9190000   17.8320000  
H 20.0310000   19.6530000   17.9430000  
H 18.9980000   20.6130000   20.9290000  
C 20.0690000   17.4180000   17.3770000  
C 19.8080000   18.1220000   16.1930000  
C 20.5180000   17.9190000   14.9870000  
C 21.6780000   17.1350000   14.9960000  
C 22.0020000   16.4710000   16.1780000  
C 21.2220000   16.6070000   17.3860000  
C 18.8240000   19.0870000   15.7740000  
C 19.0100000   19.5390000   14.4860000  
N 20.0300000   18.7520000   13.9860000  
O 17.2120000   21.1150000   14.4900000  
C 18.2240000   20.5280000   13.7760000  
O 18.4850000   20.8440000   12.6130000  
O 23.0200000   15.5550000   16.1400000  
O 21.5600000   15.9490000   18.5400000  
H 18.0440000   19.4260000   16.4780000  
H 17.0800000   20.6460000   15.3710000  
H 20.4110000   18.7420000   13.0720000  
H 23.0510000   15.1330000   16.9470000  
H 20.8590000   16.0730000   19.1780000  
H 22.2670000   17.0080000   14.1080000  
