76
101 
C 14.6760000   12.0440000   24.4860000  
C 14.3570000   11.0340000   23.3980000  
C 14.7700000   11.3310000   22.1820000  
C 15.3140000   12.5340000   21.7420000  
C 15.6850000   13.4830000   22.7390000  
C 15.4200000   13.2530000   24.0700000  
C 14.7900000   10.5480000   21.0170000  
C 15.3280000   11.3240000   19.9410000  
N 15.6030000   12.5640000   20.4720000  
O 15.2690000    9.4980000   18.3220000  
C 15.5950000   10.8260000   18.5680000  
O 16.0260000   11.5790000   17.6630000  
O 15.7140000   14.1430000   24.9840000  
O 14.3210000   11.8250000   25.6450000  
H 13.8900000   10.0710000   23.6120000  
H 14.5900000    9.5010000   21.0170000  
H 14.9620000    9.0690000   19.1550000  
H 15.9160000   15.0200000   24.5360000  
C 16.4300000   14.6520000   22.3460000  
C 15.8050000   15.9320000   22.1230000  
C 16.5590000   17.0190000   21.8470000  
C 17.9720000   17.0890000   21.7790000  
C 18.6340000   15.8630000   22.1060000  
C 17.8590000   14.7110000   22.3300000  
C 14.4100000   16.2810000   22.0240000  
C 14.4590000   17.6740000   21.7360000  
N 15.7750000   18.0410000   21.4800000  
O 12.0850000   18.0350000   22.0530000  
C 13.2990000   18.6110000   21.7100000  
O 13.3440000   19.7890000   21.4070000  
O 19.9480000   15.8330000   22.2830000  
O 18.4710000   13.5340000   22.6290000  
H 13.5440000   15.6810000   22.0650000  
H 12.2370000   17.1100000   22.2880000  
H 16.1980000   18.9210000   21.1680000  
H 20.2460000   14.8650000   22.2080000  
H 17.7980000   12.9050000   22.6110000  
C 18.7100000   18.3130000   21.3940000  
C 18.6410000   19.4820000   22.1000000  
C 19.2860000   20.6510000   21.6080000  
C 20.1370000   20.7660000   20.5120000  
C 20.3090000   19.5000000   19.8460000  
C 19.5700000   18.3320000   20.2450000  
C 17.8950000   19.8710000   23.3330000  
C 18.1390000   21.2550000   23.4820000  
N 18.9970000   21.7250000   22.4330000  
O 16.8570000   21.5370000   25.3850000  
C 17.6370000   22.1550000   24.5320000  
O 17.9220000   23.3250000   24.6350000  
O 21.0960000   19.4730000   18.7660000  
O 19.4350000   17.2970000   19.3760000  
H 17.2400000   19.2780000   24.0090000  
H 16.8670000   20.6330000   25.0550000  
H 19.3890000   22.6620000   22.2850000  
H 21.3540000   20.3640000   18.4910000  
H 19.9000000   17.5450000   18.5580000  
C 20.7880000   22.0520000   20.1010000  
C 21.6450000   22.7020000   21.0000000  
C 22.1800000   23.9210000   20.7130000  
C 21.9180000   24.5640000   19.5020000  
C 21.0340000   23.9350000   18.6470000  
C 20.5170000   22.6480000   18.8750000  
C 21.9460000   22.3890000   22.3600000  
C 22.6130000   23.4410000   22.8910000  
N 22.7420000   24.3590000   21.8710000  
O 22.5910000   22.8210000   25.1940000  
C 23.0500000   23.7120000   24.2970000  
O 23.7600000   24.6480000   24.6980000  
O 20.7050000   24.5560000   17.4300000  
O 19.6960000   22.0720000   17.8970000  
H 21.7600000   21.4650000   22.9180000  
H 22.0430000   22.1250000   24.7130000  
H 23.1160000   25.2930000   21.9960000  
H 20.1470000   23.9240000   16.9460000  
H 19.7520000   21.1250000   18.0670000  
H 22.1680000   25.6090000   19.3810000  
