76
101 
C 11.6470000   13.9090000   20.6890000  
C 10.5330000   14.7110000   21.3060000  
C 10.8580000   15.8870000   21.9520000  
C 12.1340000   16.4610000   21.9570000  
C 13.2580000   15.7930000   21.2980000  
C 12.9700000   14.6290000   20.6010000  
C  9.9840000   16.8240000   22.5360000  
C 10.8080000   17.9350000   22.8760000  
N 12.1370000   17.6840000   22.5470000  
O  9.0880000   19.2690000   23.8460000  
C 10.4610000   19.1630000   23.6760000  
O 11.2680000   20.0280000   24.0140000  
O 14.0080000   13.8290000   20.2480000  
O 11.4090000   12.7950000   20.2910000  
H  9.4930000   14.3140000   21.3760000  
H  8.8890000   16.7720000   22.5250000  
H  8.5530000   18.5850000   23.4440000  
H 14.8170000   14.4100000   20.2830000  
C 14.6300000   16.4140000   21.2090000  
C 15.4290000   16.6990000   22.3290000  
C 16.6840000   17.2440000   22.2610000  
C 17.3020000   17.5790000   21.0440000  
C 16.4410000   17.3620000   19.8460000  
C 15.1010000   16.8720000   19.9660000  
C 15.2340000   16.5150000   23.7320000  
C 16.3440000   16.8830000   24.4160000  
N 17.2790000   17.4330000   23.4440000  
O 15.7130000   16.2250000   26.5600000  
C 16.6480000   16.7700000   25.7990000  
O 17.7260000   17.0400000   26.2700000  
O 16.8160000   17.6860000   18.5710000  
O 14.2260000   16.8090000   18.9090000  
H 14.2750000   16.2950000   24.2690000  
H 15.0720000   15.9510000   25.9190000  
H 18.2360000   17.6870000   23.6040000  
H 16.1240000   17.2850000   18.0860000  
H 13.2880000   16.8130000   19.1840000  
C 18.6780000   18.2080000   21.1140000  
C 19.6960000   17.5820000   21.8570000  
C 20.8880000   18.1980000   21.9590000  
C 21.2310000   19.5010000   21.3680000  
C 20.2410000   20.1140000   20.6600000  
C 18.9400000   19.5290000   20.5690000  
C 19.8400000   16.2670000   22.4170000  
C 21.1070000   16.2210000   22.9730000  
N 21.7390000   17.4630000   22.7510000  
O 20.9920000   14.0040000   23.8130000  
C 21.6810000   15.1740000   23.8330000  
O 22.7200000   15.2760000   24.4680000  
O 20.5090000   21.2990000   20.0290000  
O 17.9970000   20.1370000   19.7600000  
H 19.1970000   15.3720000   22.3400000  
H 20.2110000   14.1720000   23.3080000  
H 22.6230000   17.6850000   23.1140000  
H 21.4450000   21.4350000   20.1530000  
H 18.3170000   21.0030000   19.4870000  
C 22.5560000   20.1790000   21.5720000  
C 23.3530000   20.5640000   20.4900000  
C 24.4340000   21.3680000   20.6780000  
C 24.8290000   21.7270000   21.9380000  
C 24.1000000   21.3220000   23.0800000  
C 22.9670000   20.4890000   22.9030000  
C 23.1880000   20.5370000   19.0380000  
C 24.1490000   21.3390000   18.5140000  
N 24.8800000   21.9010000   19.5260000  
O 23.5690000   20.9010000   16.2180000  
C 24.4090000   21.4860000   17.0410000  
O 25.3980000   22.1140000   16.6510000  
O 24.4540000   21.6320000   24.3740000  
O 22.3170000   20.0820000   24.0310000  
H 22.5110000   19.9310000   18.4440000  
H 22.8560000   20.8590000   16.8280000  
H 25.5080000   22.6470000   19.3910000  
H 23.7350000   21.3570000   25.0010000  
H 21.3750000   19.9190000   24.0670000  
H 25.6860000   22.3490000   22.1290000  
