76
101 
C 21.0760000   14.7800000   27.8760000  
C 21.5250000   13.4030000   27.4350000  
C 21.5930000   13.1580000   26.1310000  
C 21.1680000   14.0620000   25.1950000  
C 20.6110000   15.3420000   25.5200000  
C 20.6130000   15.7680000   26.8450000  
C 21.9710000   12.0460000   25.4090000  
C 21.6290000   12.3270000   24.1150000  
N 21.2260000   13.7000000   23.9520000  
O 22.1920000   10.2090000   23.1740000  
C 21.6750000   11.4340000   22.9250000  
O 21.3420000   11.7650000   21.7960000  
O 20.2780000   16.9870000   27.4280000  
O 20.9510000   14.9900000   29.0520000  
H 21.8400000   12.7520000   28.2720000  
H 22.4120000   11.0560000   25.7340000  
H 22.6020000   10.2190000   24.0660000  
H 20.2450000   17.6750000   26.7580000  
C 20.1060000   16.1690000   24.4140000  
C 18.7340000   16.2490000   24.1230000  
C 18.2790000   17.0470000   23.1590000  
C 19.0260000   17.8180000   22.2890000  
C 20.3860000   17.7920000   22.5010000  
C 20.9570000   16.9610000   23.5020000  
C 17.6490000   15.4050000   24.5060000  
C 16.5040000   15.8740000   23.9070000  
N 16.9400000   16.8890000   23.0450000  
O 14.9290000   14.5650000   25.0320000  
C 15.1310000   15.4620000   24.0560000  
O 14.2290000   15.8060000   23.3390000  
O 21.2730000   18.4090000   21.6860000  
O 22.3170000   17.0110000   23.7090000  
H 17.7470000   14.5810000   25.1880000  
H 15.7100000   14.7270000   25.6260000  
H 16.3700000   17.3820000   22.3620000  
H 22.1880000   18.3440000   22.0760000  
H 22.5140000   16.4250000   24.4820000  
C 18.3360000   18.5650000   21.1820000  
C 17.3540000   19.5730000   21.4240000  
C 16.6610000   20.0880000   20.3510000  
C 16.7220000   19.7420000   18.9980000  
C 17.7560000   18.8060000   18.7710000  
C 18.4990000   18.2590000   19.8300000  
C 16.8140000   20.2620000   22.6470000  
C 15.8180000   21.1960000   22.1240000  
N 15.7200000   20.9980000   20.7550000  
O 15.3260000   22.1000000   24.2480000  
C 15.0120000   22.1310000   22.8960000  
O 14.2640000   22.9430000   22.3940000  
O 18.0810000   18.3360000   17.5290000  
O 19.4270000   17.3180000   19.4980000  
H 17.2720000   20.3310000   23.6030000  
H 16.0770000   21.5100000   24.4670000  
H 14.9710000   21.2110000   20.1820000  
H 17.4360000   18.6990000   16.9710000  
H 19.8860000   17.1510000   20.3880000  
C 15.8170000   20.3130000   17.9590000  
C 16.0880000   21.5440000   17.3100000  
C 15.2240000   22.1290000   16.4090000  
C 14.0570000   21.5060000   15.9880000  
C 13.8760000   20.2080000   16.4700000  
C 14.7620000   19.6260000   17.4120000  
C 17.0170000   22.5960000   17.6930000  
C 16.6870000   23.7590000   17.0130000  
N 15.6280000   23.4170000   16.1210000  
O 18.1040000   25.2880000   18.1370000  
C 17.1700000   25.1430000   17.1990000  
O 16.7250000   26.0740000   16.6170000  
O 12.7610000   19.4740000   16.0290000  
O 14.6790000   18.2830000   17.7040000  
H 17.8660000   22.3830000   18.3010000  
H 18.1780000   24.3830000   18.4610000  
H 15.1590000   24.0750000   15.4370000  
H 12.9340000   18.5640000   16.4050000  
H 15.4640000   18.2230000   18.2910000  
H 13.3300000   21.9420000   15.2740000  
