76
101 
C 21.8190000   13.9850000   26.7880000  
C 20.9190000   12.9130000   27.2070000  
C 19.7350000   12.6270000   26.4880000  
C 19.3340000   13.4320000   25.4250000  
C 20.0980000   14.5830000   25.0300000  
C 21.2890000   14.8240000   25.6710000  
C 18.7630000   11.6030000   26.6360000  
C 17.7760000   11.9410000   25.7120000  
N 18.1120000   13.0920000   25.0040000  
O 16.3110000    9.9890000   26.0060000  
C 16.4980000   11.2090000   25.4920000  
O 15.6700000   11.7700000   24.8260000  
O 22.0660000   15.9250000   25.4560000  
O 22.8760000   14.0840000   27.3560000  
H 21.2780000   12.2160000   28.0010000  
H 18.7080000   10.7460000   27.3160000  
H 17.1660000    9.7340000   26.2820000  
H 21.5620000   16.5850000   24.9770000  
C 19.5680000   15.5300000   24.0100000  
C 19.2370000   16.8180000   24.3860000  
C 18.6980000   17.5940000   23.4880000  
C 18.4520000   17.3730000   22.1560000  
C 18.8440000   16.0820000   21.7220000  
C 19.4590000   15.1770000   22.6550000  
C 19.4210000   17.5630000   25.5950000  
C 18.8840000   18.8330000   25.4340000  
N 18.4010000   18.7910000   24.0910000  
O 19.6710000   19.8870000   27.4290000  
C 18.8600000   20.0310000   26.3570000  
O 18.2470000   21.0610000   26.1420000  
O 18.6240000   15.6420000   20.4670000  
O 19.7030000   13.8830000   22.2480000  
H 19.8420000   17.1170000   26.5100000  
H 20.1810000   19.0440000   27.2390000  
H 17.9630000   19.5330000   23.5770000  
H 18.8880000   14.7270000   20.5570000  
H 19.9150000   13.3420000   23.0110000  
C 17.8030000   18.4430000   21.2000000  
C 18.6540000   19.0530000   20.2620000  
C 18.2270000   20.0590000   19.4580000  
C 16.8370000   20.5650000   19.4520000  
C 16.0250000   20.0180000   20.5640000  
C 16.5030000   18.9360000   21.3630000  
C 20.0550000   18.8030000   19.9350000  
C 20.3410000   19.6470000   18.8240000  
N 19.1520000   20.3840000   18.5270000  
O 22.5710000   18.9470000   18.5110000  
C 21.6190000   19.8260000   18.1590000  
O 21.8660000   20.7640000   17.3400000  
O 14.7660000   20.5250000   20.7810000  
O 15.7410000   18.4270000   22.3530000  
H 20.7830000   18.2450000   20.4830000  
H 22.0840000   18.3120000   19.1350000  
H 19.0770000   21.0950000   17.8670000  
H 14.5960000   21.3410000   20.2290000  
H 14.8250000   18.7620000   22.1710000  
C 16.3930000   21.7890000   18.7070000  
C 15.5870000   21.6810000   17.5240000  
C 14.9910000   22.8020000   17.0010000  
C 15.1320000   24.0660000   17.5530000  
C 15.9550000   24.1630000   18.7010000  
C 16.5160000   23.0510000   19.3520000  
C 15.0900000   20.5250000   16.7420000  
C 14.2500000   21.0580000   15.7940000  
N 14.2310000   22.4350000   15.9160000  
O 13.6210000   19.0780000   14.6900000  
C 13.4820000   20.4030000   14.7910000  
O 12.5710000   20.8470000   14.1320000  
O 16.0270000   25.3760000   19.3060000  
O 17.1720000   23.0820000   20.5660000  
H 15.2200000   19.3960000   16.8920000  
H 14.3430000   18.8420000   15.3060000  
H 13.7850000   23.0120000   15.2070000  
H 16.7880000   25.3480000   19.9030000  
H 17.6640000   22.2120000   20.6570000  
H 14.5280000   24.9510000   17.2710000  
