76
101 
C 17.6990000   10.8270000   23.2370000  
C 18.7620000   10.5080000   24.2190000  
C 19.4770000   11.5290000   24.8010000  
C 19.3350000   12.8590000   24.5410000  
C 18.3860000   13.2520000   23.5250000  
C 17.4900000   12.3030000   23.0420000  
C 20.1710000   11.4200000   25.9350000  
C 20.4600000   12.7150000   26.2970000  
N 19.9650000   13.5950000   25.3600000  
O 21.5840000   12.2020000   28.3410000  
C 21.1500000   13.1680000   27.5240000  
O 21.3400000   14.3360000   27.8150000  
O 16.4140000   12.7030000   22.2640000  
O 16.9510000    9.9980000   22.7630000  
H 18.9210000    9.4110000   24.4560000  
H 20.4090000   10.5810000   26.4280000  
H 21.4540000   11.3260000   27.9610000  
H 16.6940000   13.5170000   21.8480000  
C 18.2340000   14.6760000   23.2120000  
C 18.6370000   15.1350000   21.9460000  
C 18.4600000   16.3640000   21.4790000  
C 18.1430000   17.4050000   22.3700000  
C 17.7310000   17.0550000   23.6810000  
C 17.7190000   15.6500000   24.1030000  
C 19.1680000   14.3730000   20.8450000  
C 19.4830000   15.2530000   19.7830000  
N 18.9750000   16.5620000   20.2090000  
O 20.6550000   13.7160000   18.5550000  
C 20.2560000   14.9930000   18.5700000  
O 20.4530000   15.7910000   17.6860000  
O 17.2240000   17.9390000   24.5320000  
O 17.3180000   15.1650000   25.3840000  
H 19.4330000   13.2760000   20.8560000  
H 20.3010000   13.3010000   19.3390000  
H 18.9970000   17.4200000   19.7590000  
H 17.3060000   18.7900000   24.0660000  
H 17.3070000   14.1940000   25.3550000  
C 18.0130000   18.8050000   21.8570000  
C 17.3780000   19.1370000   20.6270000  
C 17.4890000   20.3590000   20.0770000  
C 18.0420000   21.4420000   20.6860000  
C 18.8870000   21.1710000   21.8160000  
C 18.8900000   19.8360000   22.3790000  
C 16.5920000   18.4090000   19.6560000  
C 16.0720000   19.3320000   18.7360000  
N 16.7910000   20.5120000   18.8920000  
O 14.3930000   17.8330000   17.7760000  
C 14.9560000   19.1350000   17.7990000  
O 14.4610000   20.0830000   17.2010000  
O 19.5180000   22.2050000   22.3650000  
O 19.7460000   19.5160000   23.4020000  
H 16.2100000   17.4090000   19.7460000  
H 14.9970000   17.1810000   18.2120000  
H 16.6130000   21.3490000   18.4180000  
H 19.9370000   21.8120000   23.1220000  
H 19.5000000   18.6910000   23.8400000  
C 18.0620000   22.8430000   20.0150000  
C 17.0400000   23.7670000   20.2650000  
C 16.9860000   25.0290000   19.7730000  
C 18.0050000   25.4690000   18.9460000  
C 19.0810000   24.6090000   18.6310000  
C 19.0870000   23.2720000   19.1380000  
C 15.8100000   23.5780000   21.0380000  
C 15.1700000   24.7820000   21.0260000  
N 15.8610000   25.6260000   20.1310000  
O 13.3680000   24.1850000   22.5040000  
C 13.8150000   25.1130000   21.6230000  
O 13.0690000   26.0250000   21.3460000  
O 20.0230000   24.9660000   17.7640000  
O 20.0750000   22.3880000   18.7930000  
H 15.3470000   22.6990000   21.5160000  
H 14.1300000   23.5640000   22.6390000  
H 15.6830000   26.5440000   19.8860000  
H 20.7480000   24.2830000   17.8630000  
H 19.7530000   21.4640000   19.0500000  
H 17.9860000   26.4630000   18.6140000  
