76
101 
C 20.8760000   19.5140000   28.2750000  
C 21.0020000   18.2520000   29.0330000  
C 20.7900000   17.0950000   28.4330000  
C 20.3930000   16.9390000   27.1120000  
C 20.2020000   18.0910000   26.3540000  
C 20.4250000   19.3350000   26.8970000  
C 20.8860000   15.7770000   28.8980000  
C 20.6540000   14.9050000   27.8050000  
N 20.2520000   15.6560000   26.7050000  
O 21.1770000   12.9420000   28.9730000  
C 20.8810000   13.3980000   27.8140000  
O 20.7130000   12.6190000   26.9010000  
O 20.3620000   20.5180000   26.2120000  
O 21.2000000   20.5850000   28.7660000  
H 21.5310000   18.3970000   30.0060000  
H 21.3530000   15.5470000   29.8860000  
H 21.2660000   13.7840000   29.4750000  
H 20.0540000   20.2880000   25.3100000  
C 19.5150000   18.0290000   25.0780000  
C 18.2320000   18.5480000   24.9330000  
C 17.5890000   18.5470000   23.7390000  
C 18.1840000   18.1910000   22.4750000  
C 19.5470000   17.7020000   22.5530000  
C 20.1770000   17.6430000   23.8720000  
C 17.2700000   18.9790000   25.9120000  
C 16.0680000   19.1730000   25.2330000  
N 16.3070000   19.0750000   23.8630000  
O 14.8060000   19.5870000   27.0990000  
C 14.6960000   19.4290000   25.7530000  
O 13.6830000   19.4220000   25.0810000  
O 20.1970000   17.3810000   21.3580000  
O 21.4950000   17.2410000   24.0510000  
H 17.4250000   18.9590000   26.9970000  
H 15.6960000   19.4120000   27.3600000  
H 15.6250000   19.0640000   23.0860000  
H 19.6630000   17.6990000   20.6060000  
H 21.7160000   17.1760000   25.0030000  
C 17.4300000   18.3600000   21.2530000  
C 18.0070000   19.1730000   20.2190000  
C 17.4070000   19.2730000   18.9660000  
C 16.2740000   18.5870000   18.5620000  
C 15.6910000   17.8170000   19.6000000  
C 16.2890000   17.6530000   20.8470000  
C 19.1870000   19.9330000   20.1260000  
C 19.1390000   20.5220000   18.8460000  
N 18.0950000   20.0610000   18.0840000  
O 20.9690000   21.8670000   19.2180000  
C 20.0470000   21.5380000   18.3260000  
O 20.0660000   21.9370000   17.1710000  
O 14.4890000   17.1160000   19.2990000  
O 15.7820000   16.7910000   21.7800000  
H 19.8820000   20.1250000   20.9190000  
H 20.7310000   21.4460000   20.0640000  
H 17.8260000   20.3050000   17.1990000  
H 14.4340000   16.2960000   19.8990000  
H 16.4120000   16.7100000   22.5180000  
C 15.7620000   18.7110000   17.1170000  
C 15.9500000   17.7410000   16.0850000  
C 15.6180000   17.9300000   14.7320000  
C 14.9980000   19.0640000   14.3090000  
C 14.7780000   20.0840000   15.2800000  
C 15.1530000   19.9000000   16.6470000  
C 16.5790000   16.4620000   16.1610000  
C 16.4590000   15.7980000   14.9330000  
N 15.9790000   16.8100000   14.0090000  
O 17.2830000   13.6750000   15.7230000  
C 16.8640000   14.4100000   14.6690000  
O 16.7210000   13.9030000   13.5810000  
O 14.3410000   21.3210000   14.8860000  
O 15.1960000   20.9880000   17.4300000  
H 16.8890000   16.0210000   17.0200000  
H 17.3130000   14.3450000   16.4060000  
H 15.8330000   16.7970000   13.0000000  
H 14.8610000   22.0400000   15.3050000  
H 15.2180000   20.6150000   18.3170000  
H 14.6730000   19.2360000   13.2670000  
