76
101 
C 11.1750000   14.7700000   21.0600000  
C 11.2770000   13.8200000   22.0810000  
C 12.4570000   13.6800000   22.7920000  
C 13.5560000   14.4940000   22.5070000  
C 13.4610000   15.5450000   21.5540000  
C 12.3240000   15.7160000   20.8460000  
C 12.8910000   12.7640000   23.7730000  
C 14.0970000   13.2590000   24.1330000  
N 14.5380000   14.3670000   23.3500000  
O 14.3620000   11.7380000   25.9210000  
C 14.8940000   12.8170000   25.3320000  
O 15.9320000   13.2980000   25.7270000  
O 12.1230000   16.6760000   19.9680000  
O 10.1720000   14.7060000   20.3630000  
H 10.4810000   13.1170000   22.2730000  
H 12.3130000   11.9400000   24.2150000  
H 13.4830000   11.6930000   25.6070000  
H 12.9870000   16.9910000   19.7290000  
C 14.5850000   16.4770000   21.4710000  
C 15.5080000   16.2910000   20.4790000  
C 16.6780000   17.0150000   20.4960000  
C 17.0490000   17.8880000   21.5300000  
C 16.0030000   18.1650000   22.5100000  
C 14.8500000   17.3980000   22.5070000  
C 15.6350000   15.3310000   19.3340000  
C 16.8380000   15.6720000   18.6810000  
N 17.4830000   16.6520000   19.4190000  
O 16.4980000   14.0140000   17.0280000  
C 17.2690000   15.1060000   17.3660000  
O 18.1830000   15.5330000   16.6730000  
O 16.2770000   19.0400000   23.5840000  
O 13.9280000   17.5400000   23.5230000  
H 14.7520000   14.7320000   19.0670000  
H 16.0780000   13.6670000   17.8660000  
H 18.3940000   17.0660000   19.2190000  
H 17.2490000   19.2020000   23.5920000  
H 13.3190000   16.8390000   23.5680000  
C 18.3890000   18.5630000   21.5750000  
C 18.5280000   19.9320000   21.1260000  
C 19.8070000   20.4670000   21.0060000  
C 20.9780000   19.7770000   21.3220000  
C 20.8200000   18.3880000   21.6390000  
C 19.5610000   17.8440000   21.8500000  
C 17.5920000   20.8880000   20.5070000  
C 18.4240000   22.0080000   20.1440000  
N 19.7430000   21.6970000   20.5910000  
O 16.7100000   23.1570000   18.8680000  
C 17.9790000   23.1720000   19.3350000  
O 18.6820000   24.1420000   19.1520000  
O 22.0350000   17.7120000   21.8460000  
O 19.4280000   16.5440000   22.2830000  
H 16.5430000   20.7710000   20.3670000  
H 16.3360000   22.3200000   19.2320000  
H 20.5020000   22.2870000   20.4900000  
H 22.7540000   18.3500000   22.0010000  
H 18.5150000   16.2860000   22.3370000  
C 22.3350000   20.4030000   21.4430000  
C 22.7220000   20.9750000   22.6750000  
C 23.8940000   21.7080000   22.8080000  
C 24.7940000   21.8260000   21.7420000  
C 24.5340000   21.2280000   20.5260000  
C 23.2660000   20.6040000   20.3600000  
C 22.1320000   20.9160000   23.9330000  
C 23.0690000   21.4580000   24.8300000  
N 24.0960000   22.0600000   24.1140000  
O 22.0020000   20.7580000   26.6400000  
C 23.0040000   21.5340000   26.2420000  
O 23.7820000   22.1230000   26.9490000  
O 25.5300000   21.3390000   19.5860000  
O 22.8830000   20.3660000   19.0730000  
H 21.1570000   20.5020000   24.1810000  
H 21.7430000   20.2700000   25.8080000  
H 24.7140000   22.8660000   24.4220000  
H 25.1020000   21.2630000   18.6860000  
H 21.9860000   20.0080000   19.1020000  
H 25.7760000   22.2550000   22.0170000  
