76
101 
C 20.4770000   14.9420000   27.4620000  
C 21.2670000   13.6820000   27.2700000  
C 21.6220000   13.2480000   26.0270000  
C 21.0610000   13.7930000   24.8350000  
C 20.2330000   14.9560000   24.9310000  
C 19.9880000   15.5580000   26.1770000  
C 22.5500000   12.3050000   25.6000000  
C 22.4520000   12.2710000   24.1990000  
N 21.4200000   13.1650000   23.7560000  
O 24.1980000   10.8440000   23.9590000  
C 23.2620000   11.4970000   23.2620000  
O 23.0540000   11.3940000   22.0490000  
O 19.5460000   16.7610000   26.3690000  
O 20.2900000   15.5200000   28.5310000  
H 21.6370000   13.2520000   28.1750000  
H 23.1960000   11.8030000   26.2310000  
H 24.0740000   11.1010000   24.8710000  
H 19.1930000   17.1780000   25.5360000  
C 19.6310000   15.5450000   23.7370000  
C 18.2440000   15.7670000   23.7610000  
C 17.7570000   16.5160000   22.7630000  
C 18.4030000   17.1560000   21.7140000  
C 19.8060000   16.9310000   21.7170000  
C 20.3910000   16.1120000   22.7090000  
C 17.1930000   15.3190000   24.5240000  
C 16.0330000   15.9200000   24.0830000  
N 16.4050000   16.6960000   22.9840000  
O 14.6950000   15.3510000   26.0130000  
C 14.7920000   16.1010000   24.8660000  
O 13.9370000   16.9020000   24.4740000  
O 20.6100000   17.5470000   20.7910000  
O 21.7440000   16.0320000   22.8610000  
H 17.2620000   14.7510000   25.4940000  
H 15.3160000   14.5590000   25.9060000  
H 15.7410000   17.2680000   22.4690000  
H 20.1290000   18.4280000   20.5900000  
H 21.8870000   15.2450000   23.4580000  
C 17.5630000   18.0200000   20.7630000  
C 16.9830000   19.2250000   21.1850000  
C 16.3420000   20.0910000   20.3820000  
C 16.2250000   19.8230000   19.0240000  
C 16.8260000   18.6230000   18.5200000  
C 17.5420000   17.7520000   19.3710000  
C 16.9420000   19.8830000   22.4370000  
C 16.3430000   21.1460000   22.2680000  
N 15.7970000   21.1640000   21.0150000  
O 16.4740000   21.8890000   24.5260000  
C 16.0840000   22.1640000   23.2580000  
O 15.4690000   23.1600000   23.0020000  
O 16.6860000   18.2800000   17.2170000  
O 18.3370000   16.8240000   18.8430000  
H 17.3700000   19.5240000   23.3940000  
H 16.8960000   21.0700000   24.4150000  
H 15.1410000   21.8130000   20.6810000  
H 17.5430000   17.8320000   16.9560000  
H 18.6290000   16.2510000   19.5560000  
C 15.4980000   20.6980000   18.1800000  
C 16.0680000   21.9650000   17.8660000  
C 15.5380000   22.8230000   16.9060000  
C 14.4030000   22.4050000   16.1430000  
C 13.7720000   21.2350000   16.4730000  
C 14.2780000   20.3840000   17.4800000  
C 17.3060000   22.5360000   18.3210000  
C 17.4700000   23.7360000   17.6200000  
N 16.4250000   23.8230000   16.6630000  
O 19.3680000   24.4720000   18.8600000  
C 18.4810000   24.7650000   17.8490000  
O 18.5540000   25.7760000   17.2250000  
O 12.5400000   20.9710000   15.9180000  
O 13.6830000   19.1580000   17.6940000  
H 17.8500000   22.1660000   19.2450000  
H 19.1750000   23.5380000   18.9730000  
H 16.4100000   24.5790000   15.9590000  
H 12.1540000   20.1720000   16.3350000  
H 13.9500000   18.8210000   18.5660000  
H 14.0560000   23.0140000   15.3590000  
