76
101 
C 17.1540000   21.7790000   28.2280000  
C 18.2400000   21.3460000   29.1480000  
C 19.0240000   20.2820000   28.7610000  
C 19.0120000   19.7040000   27.4820000  
C 18.0610000   20.1340000   26.5080000  
C 17.1430000   21.1550000   26.9120000  
C 19.9760000   19.5440000   29.5500000  
C 20.5460000   18.6540000   28.6770000  
N 19.9290000   18.8240000   27.4010000  
O 21.9880000   17.4710000   30.1830000  
C 21.6010000   17.6500000   28.9420000  
O 22.0790000   16.9130000   28.1200000  
O 16.1380000   21.4860000   26.0720000  
O 16.2530000   22.5330000   28.6540000  
H 18.3150000   21.8510000   30.1230000  
H 20.1070000   19.6390000   30.5770000  
H 21.5340000   18.1070000   30.7330000  
H 16.4680000   21.2460000   25.1470000  
C 18.0850000   19.5480000   25.1640000  
C 17.1010000   18.6310000   24.7550000  
C 16.9810000   18.2190000   23.4340000  
C 17.9290000   18.4190000   22.4150000  
C 18.9510000   19.2960000   22.8140000  
C 19.0000000   19.8770000   24.1150000  
C 15.9330000   18.0340000   25.4890000  
C 15.3510000   17.1510000   24.5910000  
N 15.9470000   17.3020000   23.3170000  
O 13.9300000   16.0850000   26.1590000  
C 14.2950000   16.1250000   24.8440000  
O 13.8700000   15.3250000   24.0270000  
O 19.8410000   19.6700000   21.8530000  
O 19.9640000   20.7840000   24.3570000  
H 15.7130000   18.0440000   26.4860000  
H 14.3350000   16.8690000   26.5890000  
H 15.7790000   16.7910000   22.4320000  
H 19.7550000   19.1250000   21.0360000  
H 20.0220000   20.6910000   25.3280000  
C 17.8660000   17.7260000   21.0780000  
C 17.6340000   18.5170000   19.9550000  
C 17.5590000   17.9340000   18.7010000  
C 17.7000000   16.5560000   18.5030000  
C 18.0270000   15.6970000   19.6230000  
C 18.0950000   16.3100000   20.9040000  
C 17.3410000   19.9320000   19.7700000  
C 17.2080000   20.1330000   18.4420000  
N 17.3130000   18.9460000   17.7410000  
O 16.9730000   22.5360000   18.4660000  
C 16.8840000   21.4380000   17.7510000  
O 16.6330000   21.3910000   16.5620000  
O 18.3300000   14.3410000   19.4590000  
O 18.3390000   15.5060000   21.9300000  
H 17.2990000   20.7090000   20.5450000  
H 17.2740000   22.2700000   19.3510000  
H 16.9810000   18.8110000   16.8030000  
H 18.7050000   13.9480000   20.3000000  
H 18.4530000   16.0960000   22.6860000  
C 17.4470000   15.9350000   17.1560000  
C 18.3320000   16.2260000   16.0610000  
C 18.0790000   15.6920000   14.8240000  
C 17.0250000   14.7840000   14.6010000  
C 16.1040000   14.5570000   15.6020000  
C 16.3200000   15.2030000   16.8850000  
C 19.5710000   16.8790000   16.0860000  
C 20.0620000   16.7780000   14.7850000  
N 19.1570000   15.9730000   14.0180000  
O 21.9980000   18.0290000   15.2870000  
C 21.2600000   17.4300000   14.3070000  
O 21.6530000   17.4010000   13.1610000  
O 15.0480000   13.7770000   15.4420000  
O 15.5200000   14.9020000   17.8870000  
H 19.9660000   17.4750000   16.8890000  
H 21.3520000   18.0200000   15.9980000  
H 19.2160000   15.6380000   13.0440000  
H 14.5340000   13.7270000   16.2950000  
H 15.9000000   15.3910000   18.6510000  
H 16.9110000   14.2750000   13.5660000  
