76
101 
C 11.7090000   19.3900000   25.3640000  
C 11.7180000   20.8470000   25.6910000  
C 12.8680000   21.5810000   25.5940000  
C 14.0990000   21.0490000   25.1220000  
C 14.0680000   19.7010000   24.6360000  
C 12.9900000   18.9080000   24.7490000  
C 13.1020000   22.9740000   25.9380000  
C 14.4560000   23.1410000   25.6300000  
N 15.0660000   21.9700000   25.1350000  
O 14.4330000   25.5130000   25.8970000  
C 15.1750000   24.3880000   25.7210000  
O 16.3780000   24.5260000   25.6910000  
O 12.9790000   17.5850000   24.3830000  
O 10.7620000   18.6410000   25.6220000  
H 10.8170000   21.2720000   26.0580000  
H 12.4960000   23.6490000   26.5230000  
H 13.5190000   25.1900000   25.9810000  
H 13.7870000   17.4310000   23.8870000  
C 15.1690000   19.1380000   23.8730000  
C 16.3530000   18.6720000   24.4940000  
C 17.3700000   18.1220000   23.7800000  
C 17.4970000   18.1750000   22.3800000  
C 16.3120000   18.6170000   21.7360000  
C 15.1860000   18.9870000   22.4410000  
C 16.7560000   18.6250000   25.8700000  
C 18.0630000   18.1780000   25.8630000  
N 18.4350000   17.8700000   24.5570000  
O 18.6120000   18.5960000   28.1540000  
C 19.0040000   17.9810000   27.0220000  
O 20.1070000   17.5340000   26.8240000  
O 16.2870000   18.6150000   20.3520000  
O 14.0610000   19.4850000   21.7240000  
H 16.1610000   18.8270000   26.7040000  
H 17.6810000   18.8510000   28.1280000  
H 19.2880000   17.4110000   24.1790000  
H 17.1320000   18.1790000   20.2340000  
H 14.3120000   19.7270000   20.8240000  
C 18.6670000   17.7520000   21.6220000  
C 18.6710000   16.5650000   20.8310000  
C 19.6940000   16.1680000   20.0020000  
C 20.8320000   16.9890000   19.7890000  
C 20.8740000   18.1590000   20.5600000  
C 19.8100000   18.6080000   21.4190000  
C 17.7180000   15.4430000   20.6970000  
C 18.3000000   14.5220000   19.7920000  
N 19.5750000   14.8970000   19.4080000  
O 16.3370000   13.2040000   19.8600000  
C 17.6130000   13.2990000   19.4960000  
O 18.1880000   12.5250000   18.7490000  
O 21.9500000   18.9690000   20.4760000  
O 19.8290000   19.7870000   22.0320000  
H 16.7980000   15.2500000   21.2340000  
H 16.1770000   13.9680000   20.3740000  
H 20.1570000   14.4160000   18.7110000  
H 22.4890000   18.6960000   19.7190000  
H 18.9620000   19.8880000   22.4070000  
C 21.9780000   16.4680000   18.9430000  
C 21.7570000   16.3400000   17.5670000  
C 22.7320000   15.8470000   16.7280000  
C 24.0260000   15.5640000   17.1420000  
C 24.3200000   15.8130000   18.4780000  
C 23.2940000   16.2060000   19.4210000  
C 20.5650000   16.5570000   16.8020000  
C 20.9120000   16.3740000   15.4810000  
N 22.2160000   15.8060000   15.4330000  
O 18.6520000   16.8130000   14.7550000  
C 19.9390000   16.4540000   14.3860000  
O 20.2910000   16.2400000   13.2380000  
O 25.6050000   15.5330000   18.9130000  
O 23.6340000   16.2470000   20.6730000  
H 19.6800000   17.0320000   17.2380000  
H 18.5790000   16.3860000   15.6010000  
H 22.6310000   15.4030000   14.6610000  
H 25.7160000   15.5380000   19.8660000  
H 22.9910000   16.7610000   21.1780000  
H 24.7610000   15.4240000   16.3610000  
