76
101 
C 18.7190000   21.3140000   28.5720000  
C 17.3040000   21.0740000   29.0480000  
C 16.4850000   20.2850000   28.3360000  
C 16.7510000   19.7260000   27.1050000  
C 18.0790000   19.9440000   26.5730000  
C 18.9390000   20.7610000   27.1930000  
C 15.1760000   19.9310000   28.6510000  
C 14.7510000   19.0780000   27.6300000  
N 15.7290000   19.0340000   26.5980000  
O 12.7030000   18.6670000   28.7580000  
C 13.4350000   18.4580000   27.6440000  
O 12.9830000   17.7690000   26.7520000  
O 20.1840000   20.8320000   26.7010000  
O 19.5410000   21.8650000   29.2070000  
H 17.1340000   21.4620000   30.0530000  
H 14.6330000   20.2190000   29.5250000  
H 13.3060000   19.1530000   29.2590000  
H 20.2830000   20.5130000   25.8100000  
C 18.2830000   19.4370000   25.1880000  
C 18.4140000   20.3480000   24.1610000  
C 18.6280000   19.8700000   22.8740000  
C 18.5750000   18.5380000   22.5060000  
C 18.3360000   17.5380000   23.5020000  
C 18.2030000   18.0410000   24.8530000  
C 18.2700000   21.7840000   24.1120000  
C 18.3980000   22.1320000   22.7330000  
N 18.6290000   20.9190000   21.9640000  
O 18.0770000   24.5010000   23.0660000  
C 18.1960000   23.4630000   22.1680000  
O 18.0440000   23.5580000   20.9500000  
O 18.2720000   16.1970000   23.1930000  
O 18.0440000   17.1930000   25.9080000  
H 18.0760000   22.4950000   24.8940000  
H 18.3240000   24.0510000   23.9120000  
H 18.8350000   20.8260000   21.0130000  
H 18.8240000   16.0370000   22.4120000  
H 17.1490000   16.8460000   25.9530000  
C 18.6300000   18.0900000   21.0350000  
C 19.7300000   17.3670000   20.5110000  
C 19.6190000   16.8090000   19.2960000  
C 18.5400000   17.0140000   18.3910000  
C 17.5060000   17.8000000   18.8830000  
C 17.5820000   18.3390000   20.1780000  
C 21.0030000   17.0410000   21.0320000  
C 21.5570000   16.0980000   20.1710000  
N 20.7120000   15.9810000   19.0620000  
O 23.5500000   15.6950000   21.3520000  
C 22.8430000   15.3490000   20.3030000  
O 23.1370000   14.4320000   19.5530000  
O 16.4340000   17.9460000   18.1000000  
O 16.5530000   19.1240000   20.5270000  
H 21.4610000   17.4470000   22.0060000  
H 23.1640000   16.5470000   21.6650000  
H 20.9470000   15.5330000   18.1600000  
H 16.0240000   18.8000000   18.3260000  
H 16.9340000   19.6860000   21.2790000  
C 18.5970000   16.4290000   17.0140000  
C 17.5250000   15.5970000   16.5770000  
C 17.5910000   15.0670000   15.3030000  
C 18.7770000   15.1280000   14.5090000  
C 19.8160000   15.9040000   14.9130000  
C 19.7190000   16.5530000   16.1600000  
C 16.2710000   15.1160000   17.1230000  
C 15.5500000   14.4600000   16.0860000  
N 16.4240000   14.4130000   14.9530000  
O 13.8110000   13.8350000   17.6480000  
C 14.2710000   13.7700000   16.3370000  
O 13.6580000   13.2150000   15.4090000  
O 20.9520000   16.0660000   14.1250000  
O 20.7280000   17.3460000   16.5920000  
H 15.9880000   15.1340000   18.1670000  
H 14.4850000   14.4280000   18.1050000  
H 16.3470000   13.7200000   14.2450000  
H 21.5900000   16.6990000   14.5260000  
H 20.3740000   18.0850000   17.1450000  
H 18.7540000   14.7400000   13.4760000  
