76
101 
C 20.0630000   11.2310000   23.4210000  
C 19.0920000   10.2060000   23.2630000  
C 17.8710000   10.4890000   22.6980000  
C 17.5860000   11.7950000   22.2570000  
C 18.5900000   12.8590000   22.2930000  
C 19.7780000   12.5450000   22.8400000  
C 16.7980000    9.7130000   22.3700000  
C 15.9040000   10.5950000   21.7630000  
N 16.4100000   11.8600000   21.6570000  
O 14.2670000    8.9650000   21.3600000  
C 14.6120000   10.2870000   21.3870000  
O 13.7670000   11.1270000   21.0110000  
O 20.6990000   13.5340000   23.1440000  
O 21.1200000   10.9870000   23.9640000  
H 19.4810000    9.2230000   23.5590000  
H 16.6440000    8.6930000   22.6530000  
H 15.0930000    8.4540000   21.4530000  
H 20.3360000   14.3170000   22.8670000  
C 18.1940000   14.2310000   22.0300000  
C 18.1100000   15.2060000   23.0880000  
C 17.9640000   16.5460000   22.8160000  
C 17.9720000   17.1590000   21.5760000  
C 18.0580000   16.2130000   20.5360000  
C 18.1670000   14.7710000   20.7250000  
C 18.1380000   15.0240000   24.4760000  
C 18.1000000   16.3500000   24.9650000  
N 17.9250000   17.2600000   23.9620000  
O 17.5110000   15.6920000   27.0860000  
C 17.8500000   16.6920000   26.3890000  
O 17.7630000   17.8970000   26.6490000  
O 18.1190000   16.7580000   19.2880000  
O 18.3500000   13.9450000   19.6390000  
H 18.1850000   14.0990000   25.0480000  
H 17.3900000   14.8910000   26.4430000  
H 17.6240000   18.2060000   24.0560000  
H 17.9580000   17.6910000   19.4110000  
H 18.1210000   13.0190000   19.8970000  
C 17.8510000   18.6860000   21.4960000  
C 18.8760000   19.5560000   21.6250000  
C 18.6680000   20.9130000   21.3540000  
C 17.4200000   21.6140000   21.2890000  
C 16.3190000   20.7070000   21.2400000  
C 16.5660000   19.3050000   21.2720000  
C 20.2880000   19.3590000   21.7530000  
C 20.8680000   20.6430000   21.5630000  
N 19.8220000   21.5460000   21.5560000  
O 23.1730000   20.0610000   21.4660000  
C 22.2260000   21.0660000   21.4380000  
O 22.4880000   22.2330000   21.3030000  
O 15.0200000   21.1710000   20.8850000  
O 15.5080000   18.4570000   21.1350000  
H 20.8960000   18.4080000   21.7310000  
H 22.7160000   19.2830000   21.6130000  
H 19.9180000   22.5020000   21.7770000  
H 14.4290000   20.4040000   20.9030000  
H 15.7140000   17.5560000   21.4470000  
C 17.3670000   23.1200000   21.2490000  
C 17.5240000   23.9520000   20.1300000  
C 17.6200000   25.3080000   20.3090000  
C 17.5530000   25.9120000   21.5500000  
C 17.4750000   25.0800000   22.7000000  
C 17.2920000   23.6590000   22.5670000  
C 17.4830000   23.6860000   18.6870000  
C 17.5350000   24.9080000   18.0680000  
N 17.5180000   25.9020000   19.0540000  
O 17.1420000   24.0720000   15.8910000  
C 17.5600000   25.1090000   16.5990000  
O 17.8310000   26.1540000   16.0330000  
O 17.5640000   25.6750000   23.8940000  
O 17.0190000   22.8550000   23.6720000  
H 17.4990000   22.7760000   18.1860000  
H 16.9530000   23.3450000   16.5640000  
H 17.6540000   26.8770000   18.9230000  
H 17.2160000   25.0150000   24.5420000  
H 16.7680000   21.9790000   23.3670000  
H 17.5780000   27.0410000   21.7140000  
