76
101 
C 18.6880000   10.8960000   24.0890000  
C 19.6450000   11.0040000   25.2170000  
C 20.0010000   12.2320000   25.7370000  
C 19.4600000   13.4550000   25.2710000  
C 18.5950000   13.4270000   24.1710000  
C 18.2480000   12.2200000   23.6060000  
C 21.0530000   12.6360000   26.6710000  
C 21.0880000   14.0460000   26.6030000  
N 20.1030000   14.5610000   25.7530000  
O 22.8240000   14.3040000   28.2980000  
C 21.8890000   14.9040000   27.4840000  
O 21.6730000   16.0940000   27.5040000  
O 17.5930000   12.2280000   22.4210000  
O 18.3060000    9.8670000   23.5860000  
H 19.9930000   10.1120000   25.6490000  
H 21.7540000   12.0740000   27.1530000  
H 22.7970000   13.3500000   28.1340000  
H 17.7370000   13.0590000   21.8860000  
C 18.1140000   14.6870000   23.6100000  
C 19.0210000   15.4530000   22.9220000  
C 18.7520000   16.7200000   22.4830000  
C 17.4930000   17.3530000   22.6100000  
C 16.5400000   16.6030000   23.3390000  
C 16.8060000   15.3130000   23.7810000  
C 20.3280000   15.0400000   22.5070000  
C 20.8050000   16.2180000   21.8960000  
N 19.8360000   17.2200000   21.8610000  
O 22.9730000   15.2940000   21.3320000  
C 22.0810000   16.2910000   21.1920000  
O 22.3740000   17.3620000   20.6150000  
O 15.2620000   17.1550000   23.5050000  
O 15.7730000   14.6720000   24.4360000  
H 20.8760000   14.1090000   22.3720000  
H 22.6470000   14.5660000   21.8780000  
H 20.0980000   18.1580000   21.5660000  
H 15.2840000   18.0600000   23.2530000  
H 16.1520000   14.1040000   25.1570000  
C 17.3000000   18.7220000   22.0360000  
C 17.1080000   18.8900000   20.6330000  
C 17.0540000   20.1270000   20.0930000  
C 17.0550000   21.3620000   20.8610000  
C 17.1170000   21.1650000   22.2580000  
C 17.2100000   19.8880000   22.8860000  
C 17.0500000   17.9440000   19.5200000  
C 17.0120000   18.6840000   18.3570000  
N 17.0240000   20.0890000   18.7330000  
O 17.2190000   16.8850000   16.6930000  
C 17.0300000   18.2060000   16.9840000  
O 16.9440000   19.0850000   16.1160000  
O 16.9510000   22.2070000   23.0990000  
O 17.1460000   19.6970000   24.2050000  
H 17.1980000   16.9260000   19.5080000  
H 17.3660000   16.4810000   17.5550000  
H 17.2080000   20.9470000   18.1150000  
H 16.6470000   21.7810000   23.9220000  
H 17.3400000   18.7700000   24.3800000  
C 17.1220000   22.6810000   20.1660000  
C 16.1000000   23.0590000   19.2540000  
C 16.1130000   24.1810000   18.4620000  
C 17.1430000   25.0930000   18.5890000  
C 18.2580000   24.7200000   19.4390000  
C 18.1530000   23.6010000   20.3120000  
C 14.9370000   22.3250000   18.7250000  
C 14.2180000   23.1820000   17.8910000  
N 14.9730000   24.3470000   17.6910000  
O 12.1860000   21.8390000   17.4950000  
C 12.8890000   22.9190000   17.2110000  
O 12.5960000   23.7010000   16.3020000  
O 19.3180000   25.5450000   19.3690000  
O 19.2080000   23.3760000   21.1530000  
H 14.4940000   21.3270000   19.0560000  
H 12.5470000   21.4340000   18.2650000  
H 14.6540000   25.1190000   17.1630000  
H 19.9040000   25.1210000   19.9320000  
H 18.9180000   22.5570000   21.6070000  
H 17.1940000   26.0070000   17.9240000  
