76
101 
C 21.5090000   15.9400000   28.1370000  
C 21.9890000   14.5750000   27.8830000  
C 21.8140000   14.1180000   26.6420000  
C 21.2060000   14.8130000   25.5470000  
C 20.6770000   16.1350000   25.7620000  
C 20.7740000   16.6360000   27.0560000  
C 22.0920000   12.8320000   26.1360000  
C 21.5940000   12.8390000   24.8040000  
N 21.0780000   14.0770000   24.4450000  
O 22.4280000   10.6450000   24.3150000  
C 21.7030000   11.7090000   23.8520000  
O 21.3670000   11.7830000   22.6700000  
O 20.1210000   17.8200000   27.3610000  
O 21.7150000   16.4350000   29.2740000  
H 22.5990000   14.1200000   28.6890000  
H 22.5010000   12.0710000   26.7630000  
H 22.7950000   10.8460000   25.1880000  
H 19.6760000   18.0350000   26.5070000  
C 20.0270000   16.7780000   24.5960000  
C 18.8080000   16.2830000   24.1340000  
C 18.2170000   16.7230000   23.0050000  
C 18.6640000   17.7580000   22.1760000  
C 19.8730000   18.3940000   22.6590000  
C 20.5170000   17.8310000   23.8060000  
C 18.0620000   15.1330000   24.6030000  
C 16.9710000   14.9930000   23.7130000  
N 17.0750000   15.9590000   22.7160000  
O 15.7470000   13.4710000   25.0590000  
C 15.7900000   14.1000000   23.8590000  
O 14.8860000   14.0260000   23.0740000  
O 20.5430000   19.3800000   21.9720000  
O 21.7580000   18.3130000   24.1390000  
H 18.2630000   14.5500000   25.5450000  
H 16.5990000   13.8390000   25.4260000  
H 16.2750000   16.2200000   22.0820000  
H 20.0570000   19.5990000   21.1140000  
H 22.2970000   17.6540000   24.6080000  
C 17.9280000   18.1710000   20.8980000  
C 16.7610000   18.9710000   21.0230000  
C 16.3210000   19.6630000   19.9210000  
C 16.8320000   19.5430000   18.6210000  
C 17.9680000   18.7630000   18.4530000  
C 18.4950000   18.0390000   19.5710000  
C 16.0070000   19.3700000   22.1910000  
C 15.0460000   20.3250000   21.6650000  
N 15.2880000   20.4860000   20.2190000  
O 13.9830000   20.9120000   23.6940000  
C 14.0470000   21.0870000   22.3730000  
O 13.3730000   21.9490000   21.8400000  
O 18.6210000   18.6690000   17.2730000  
O 19.5020000   17.1280000   19.3180000  
H 16.0500000   19.0690000   23.2640000  
H 14.5820000   20.2910000   23.9650000  
H 14.7920000   21.0900000   19.5520000  
H 19.4710000   18.1950000   17.5040000  
H 19.9170000   16.9840000   20.1760000  
C 16.1510000   20.1860000   17.4340000  
C 16.2760000   21.5460000   17.1910000  
C 15.4580000   22.2140000   16.3190000  
C 14.6930000   21.5370000   15.3570000  
C 14.5730000   20.1660000   15.5230000  
C 15.3310000   19.4370000   16.5530000  
C 16.9260000   22.5400000   17.9480000  
C 16.5270000   23.7410000   17.4690000  
N 15.6250000   23.5820000   16.4310000  
O 17.6210000   25.1340000   19.1290000  
C 16.9250000   25.0410000   17.9780000  
O 16.6480000   26.0470000   17.3400000  
O 13.6170000   19.4810000   14.8570000  
O 15.2030000   18.0770000   16.6620000  
H 17.6970000   22.3830000   18.7020000  
H 17.5700000   24.3070000   19.6360000  
H 15.0870000   24.3200000   15.9500000  
H 13.5140000   18.6840000   15.4320000  
H 15.4940000   17.8600000   17.5570000  
H 14.2260000   22.0230000   14.5760000  
