76
101 
C 14.0810000   11.7030000   21.8900000  
C 13.0100000   11.9800000   20.9510000  
C 13.0090000   13.1650000   20.2040000  
C 14.0630000   14.0430000   20.3220000  
C 15.1460000   13.7630000   21.1940000  
C 15.1240000   12.6630000   22.0480000  
C 12.1640000   13.6730000   19.2600000  
C 12.7790000   14.7670000   18.8220000  
N 13.9850000   15.0370000   19.5160000  
O 11.1150000   15.1490000   17.0870000  
C 12.2210000   15.6140000   17.7120000  
O 12.7170000   16.6650000   17.3410000  
O 16.1160000   12.4140000   22.9660000  
O 13.9390000   10.7630000   22.6530000  
H 12.2140000   11.2180000   20.8640000  
H 11.2670000   13.1570000   18.9650000  
H 10.8140000   14.5230000   17.6810000  
H 16.4210000   13.2620000   23.2300000  
C 16.1700000   14.7850000   21.3290000  
C 15.9930000   15.7160000   22.3360000  
C 16.6840000   16.8910000   22.2310000  
C 17.7570000   17.1340000   21.3370000  
C 17.9990000   16.1150000   20.3780000  
C 17.1220000   14.9870000   20.3240000  
C 14.9980000   15.8590000   23.3430000  
C 15.2050000   17.1080000   23.9310000  
N 16.2730000   17.7260000   23.2500000  
O 13.3760000   16.8440000   25.4630000  
C 14.4770000   17.5570000   25.0860000  
O 14.6580000   18.6490000   25.6340000  
O 18.8800000   16.3420000   19.3850000  
O 17.1810000   13.9920000   19.4410000  
H 14.3090000   15.0290000   23.6100000  
H 13.3580000   16.0550000   24.8580000  
H 16.7470000   18.5560000   23.4430000  
H 19.2790000   17.2330000   19.5460000  
H 16.4450000   13.3350000   19.4690000  
C 18.5120000   18.3960000   21.5390000  
C 19.2490000   18.7920000   22.7010000  
C 19.9350000   19.9490000   22.7220000  
C 19.9490000   20.9830000   21.7760000  
C 19.1720000   20.6370000   20.6360000  
C 18.4930000   19.4280000   20.4880000  
C 19.4160000   18.1640000   24.0000000  
C 20.2940000   19.0230000   24.7510000  
N 20.6820000   20.0860000   23.9010000  
O 20.3260000   17.7130000   26.7090000  
C 20.6780000   18.9030000   26.2110000  
O 21.1940000   19.7990000   26.8540000  
O 18.9960000   21.6120000   19.7070000  
O 17.7870000   19.2670000   19.3660000  
H 19.0310000   17.1640000   24.3810000  
H 19.8160000   17.2050000   26.0520000  
H 21.2110000   20.9230000   24.2110000  
H 18.5510000   21.1890000   18.9200000  
H 17.5890000   18.3490000   19.2690000  
C 20.8040000   22.2190000   21.9830000  
C 22.0740000   22.2330000   21.3800000  
C 22.9060000   23.2830000   21.5510000  
C 22.5860000   24.4630000   22.2290000  
C 21.3130000   24.4320000   22.8790000  
C 20.4450000   23.2900000   22.8130000  
C 22.7340000   21.2410000   20.5090000  
C 23.8990000   21.7610000   20.1200000  
N 24.0740000   22.9930000   20.7910000  
O 24.7100000   19.7440000   19.2380000  
C 24.9590000   21.0470000   19.3570000  
O 25.9350000   21.5870000   18.8710000  
O 20.9600000   25.4560000   23.7330000  
O 19.3500000   23.2610000   23.5650000  
H 22.2260000   20.3510000   20.1300000  
H 24.0430000   19.4990000   19.9350000  
H 24.7900000   23.6590000   20.6080000  
H 20.0410000   25.3680000   24.0450000  
H 18.8260000   22.4070000   23.4150000  
H 23.1110000   25.4670000   22.1340000  
