76
101 
C 12.2810000   13.1500000   21.5150000  
C 11.5010000   13.7420000   20.3960000  
C 11.9630000   14.9130000   19.8980000  
C 13.0670000   15.6350000   20.2990000  
C 13.9300000   15.0780000   21.2860000  
C 13.4940000   13.8830000   21.9160000  
C 11.4410000   15.7060000   18.7980000  
C 12.3990000   16.7130000   18.5920000  
N 13.3960000   16.7060000   19.5450000  
O 11.0720000   17.6260000   16.8430000  
C 12.2160000   17.7890000   17.5490000  
O 12.9600000   18.6510000   17.3590000  
O 14.1000000   13.4550000   23.0650000  
O 11.8360000   12.1470000   22.0560000  
H 10.5260000   13.4370000   20.0810000  
H 10.5820000   15.4820000   18.1680000  
H 10.6610000   17.0520000   17.4570000  
H 14.7880000   14.1000000   23.3440000  
C 15.1840000   15.6900000   21.6840000  
C 15.3090000   16.3970000   22.9170000  
C 16.4230000   17.0110000   23.2540000  
C 17.5510000   17.1550000   22.3590000  
C 17.3820000   16.4970000   21.0390000  
C 16.2300000   15.7520000   20.7830000  
C 14.3680000   16.6440000   23.9930000  
C 15.0070000   17.4190000   24.9370000  
N 16.2970000   17.6460000   24.4690000  
O 13.1580000   17.7740000   26.3480000  
C 14.4830000   17.9530000   26.2000000  
O 15.1830000   18.5440000   27.0350000  
O 18.3600000   16.5960000   20.1030000  
O 16.0690000   15.2020000   19.5510000  
H 13.2900000   16.2110000   23.9960000  
H 12.8590000   17.4130000   25.5260000  
H 17.0020000   18.2570000   24.8520000  
H 19.1930000   16.9750000   20.4940000  
H 15.1870000   14.7460000   19.5420000  
C 18.7080000   18.1000000   22.5880000  
C 20.0250000   17.7030000   22.6070000  
C 21.0650000   18.5560000   22.8030000  
C 20.8940000   19.9600000   22.7380000  
C 19.5460000   20.4110000   22.9000000  
C 18.4990000   19.4960000   22.8100000  
C 20.5420000   16.4050000   22.2770000  
C 21.9070000   16.4660000   22.3520000  
N 22.2890000   17.8260000   22.6820000  
O 22.1720000   14.2820000   21.5860000  
C 22.8440000   15.4170000   21.8200000  
O 24.0150000   15.6130000   21.6080000  
O 19.2120000   21.7170000   23.1870000  
O 17.2240000   19.9730000   22.7710000  
H 19.9740000   15.5190000   22.1640000  
H 21.4290000   14.4860000   22.1620000  
H 23.2160000   18.2020000   22.5220000  
H 18.2900000   21.8600000   22.9660000  
H 16.6620000   19.2530000   22.4170000  
C 21.9770000   20.9940000   22.7230000  
C 22.5480000   21.4430000   21.4560000  
C 23.4570000   22.4300000   21.4380000  
C 23.8760000   23.0850000   22.6320000  
C 23.4250000   22.6460000   23.9050000  
C 22.5030000   21.5740000   23.9800000  
C 22.3250000   21.0280000   20.1070000  
C 23.1110000   21.7960000   19.3160000  
N 23.6990000   22.7570000   20.1130000  
O 22.1760000   21.0150000   17.2090000  
C 23.1180000   21.7510000   17.8070000  
O 23.9840000   22.2940000   17.1170000  
O 23.7400000   23.3560000   24.9740000  
O 22.0050000   21.2630000   25.1760000  
H 21.7920000   20.1170000   19.8240000  
H 21.5780000   20.8090000   17.9400000  
H 24.3040000   23.5070000   19.6860000  
H 22.9890000   23.2580000   25.5730000  
H 21.4570000   20.4230000   25.0440000  
H 24.4010000   24.0380000   22.4750000  
