76
101 
C 13.7460000   20.9050000   27.3790000  
C 14.6160000   21.9800000   27.9540000  
C 15.8430000   22.2480000   27.2780000  
C 16.3610000   21.4770000   26.2390000  
C 15.5650000   20.4470000   25.6730000  
C 14.2470000   20.2620000   26.1570000  
C 16.9090000   23.1300000   27.5930000  
C 17.9550000   22.7830000   26.7490000  
N 17.5870000   21.7810000   25.7930000  
O 19.3080000   24.6160000   27.4260000  
C 19.2740000   23.5040000   26.6480000  
O 20.2140000   23.1330000   26.0000000  
O 13.4810000   19.2110000   25.7340000  
O 12.6830000   20.6010000   27.9540000  
H 14.4200000   22.3190000   28.9800000  
H 16.9980000   23.8430000   28.4010000  
H 18.4670000   24.6980000   27.8880000  
H 13.9760000   18.6820000   25.0360000  
C 16.0610000   19.5690000   24.5510000  
C 16.3310000   18.1870000   24.7080000  
C 16.9440000   17.4730000   23.7450000  
C 17.2960000   18.0790000   22.5020000  
C 16.8410000   19.3680000   22.2200000  
C 16.2050000   20.1010000   23.2340000  
C 16.1520000   17.2500000   25.8090000  
C 16.6830000   16.0570000   25.4000000  
N 17.2680000   16.1500000   24.0990000  
O 16.0650000   14.8620000   27.4130000  
C 16.6160000   14.7900000   26.1470000  
O 17.0650000   13.7200000   25.7480000  
O 17.1050000   20.0080000   20.9900000  
O 15.7790000   21.4080000   23.0200000  
H 15.5230000   17.4380000   26.6640000  
H 15.6830000   15.7690000   27.5010000  
H 17.8250000   15.4600000   23.5630000  
H 17.5380000   19.3600000   20.4080000  
H 15.8140000   21.9840000   23.7960000  
C 18.0240000   17.3170000   21.4510000  
C 17.6160000   17.0920000   20.1470000  
C 18.4090000   16.5200000   19.1690000  
C 19.6980000   16.0870000   19.3260000  
C 20.2150000   16.3200000   20.6280000  
C 19.4380000   16.9610000   21.6620000  
C 16.3600000   17.3730000   19.5400000  
C 16.4270000   16.8860000   18.2030000  
N 17.6870000   16.3260000   17.9960000  
O 14.1520000   17.5730000   17.6600000  
C 15.3070000   17.0160000   17.1910000  
O 15.3560000   16.5910000   16.0810000  
O 21.5290000   16.0020000   20.9180000  
O 20.0410000   17.0830000   22.8630000  
H 15.5280000   17.8310000   20.0220000  
H 14.3390000   17.9810000   18.5090000  
H 18.0870000   15.7910000   17.2500000  
H 21.7300000   16.7560000   21.5250000  
H 19.3950000   17.4790000   23.4960000  
C 20.4140000   15.3640000   18.1900000  
C 20.6650000   16.0690000   16.9630000  
C 21.4330000   15.5050000   16.0000000  
C 22.0370000   14.2350000   16.0730000  
C 21.7700000   13.4370000   17.2440000  
C 21.0150000   14.0140000   18.2900000  
C 20.5890000   17.5060000   16.6820000  
C 21.0750000   17.6740000   15.3940000  
N 21.6780000   16.5080000   15.0260000  
O 20.4640000   19.9660000   15.1870000  
C 20.9990000   18.9160000   14.5150000  
O 21.5370000   19.0600000   13.4680000  
O 22.3600000   12.2440000   17.3500000  
O 20.8180000   13.3010000   19.4730000  
H 20.0660000   18.2390000   17.2860000  
H 20.3760000   19.6910000   16.1040000  
H 22.1580000   16.4080000   14.1530000  
H 22.0130000   12.0320000   18.2650000  
H 20.2810000   13.8440000   20.1220000  
H 22.8380000   13.8910000   15.3880000  
