76
101 
C 11.5600000   19.2470000   25.5920000  
C 10.6760000   19.0010000   24.4930000  
C 11.1870000   18.6420000   23.2720000  
C 12.5300000   18.4050000   23.0170000  
C 13.4850000   18.6490000   24.0030000  
C 13.0370000   19.0910000   25.2570000  
C 10.4680000   18.1940000   22.1480000  
C 11.4220000   17.8370000   21.1690000  
N 12.7110000   17.9880000   21.7580000  
O  9.9220000   17.3380000   19.3250000  
C 11.1680000   17.4140000   19.7440000  
O 12.1110000   17.1720000   19.0030000  
O 13.8690000   19.3770000   26.2670000  
O 11.1070000   19.5070000   26.6750000  
H  9.6190000   18.9710000   24.7660000  
H  9.3230000   18.0440000   22.0300000  
H  9.5110000   17.3960000   20.1780000  
H 14.8540000   19.2020000   26.0590000  
C 14.8480000   18.4280000   23.6540000  
C 15.6730000   19.5620000   23.5220000  
C 16.9610000   19.5050000   23.1790000  
C 17.5560000   18.2340000   22.7920000  
C 16.7510000   17.0670000   22.9160000  
C 15.4190000   17.1360000   23.4380000  
C 15.2780000   20.9430000   23.6350000  
C 16.4740000   21.6720000   23.3490000  
N 17.5150000   20.7570000   23.0080000  
O 15.5630000   23.6360000   24.0320000  
C 16.6280000   23.0990000   23.4600000  
O 17.6500000   23.7240000   23.2740000  
O 17.3250000   15.8450000   22.6350000  
O 14.7180000   15.9720000   23.6610000  
H 14.3160000   21.3400000   23.9290000  
H 15.0870000   22.8620000   24.2730000  
H 18.4700000   20.9660000   22.6950000  
H 18.2690000   16.0910000   22.3490000  
H 13.8140000   16.1960000   24.0140000  
C 18.8290000   18.1970000   22.0720000  
C 19.8670000   17.4030000   22.5320000  
C 20.9990000   17.2270000   21.7910000  
C 21.2250000   17.9080000   20.5920000  
C 20.2340000   18.7920000   20.0590000  
C 19.0180000   18.9230000   20.8160000  
C 20.0020000   16.5730000   23.7200000  
C 21.3540000   16.1210000   23.6790000  
N 21.9420000   16.4920000   22.4490000  
O 21.1630000   14.8850000   25.6860000  
C 21.9700000   15.2390000   24.6700000  
O 23.0920000   14.7380000   24.6470000  
O 20.4980000   19.5150000   18.9550000  
O 17.9520000   19.6360000   20.2560000  
H 19.2330000   16.3760000   24.4490000  
H 20.4300000   15.4550000   25.6250000  
H 22.8980000   16.2830000   22.1450000  
H 21.4600000   19.6190000   18.8440000  
H 17.1140000   19.5910000   20.7490000  
C 22.5820000   17.8170000   19.9580000  
C 22.7180000   17.1830000   18.7140000  
C 23.9100000   16.9610000   18.1250000  
C 25.0420000   17.6190000   18.6170000  
C 24.9160000   18.4000000   19.7520000  
C 23.7070000   18.3850000   20.5360000  
C 21.7430000   16.4020000   17.9680000  
C 22.4000000   15.8230000   16.9370000  
N 23.7430000   16.2300000   16.9790000  
O 20.5830000   14.5390000   16.0800000  
C 21.8530000   14.9500000   15.8710000  
O 22.4330000   14.5090000   14.9220000  
O 26.0140000   19.0370000   20.2150000  
O 23.6300000   19.0870000   21.7150000  
H 20.6710000   16.2490000   18.2570000  
H 20.4840000   14.4760000   17.0700000  
H 24.3870000   16.0290000   16.2600000  
H 25.8040000   19.5020000   21.0670000  
H 22.7090000   19.4180000   21.8530000  
H 25.9570000   17.5120000   17.9960000  
