76
101 
C 10.3880000   17.0350000   22.9970000  
C 10.4590000   15.5760000   23.3290000  
C 11.6470000   14.8980000   23.2320000  
C 12.8570000   15.5030000   22.9110000  
C 12.8770000   16.9560000   22.6530000  
C 11.7140000   17.6900000   22.6940000  
C 11.9850000   13.5090000   23.3440000  
C 13.3360000   13.4010000   23.0430000  
N 13.8490000   14.6530000   22.8260000  
O 13.4310000   10.9860000   23.1790000  
C 14.0650000   12.1210000   22.8750000  
O 15.2750000   11.9170000   22.5260000  
O 11.5740000   18.9620000   22.2800000  
O  9.3600000   17.7420000   23.0030000  
H  9.4900000   15.0730000   23.5640000  
H 11.3160000   12.6560000   23.3480000  
H 12.5510000   11.2130000   23.3380000  
H 12.4820000   19.3630000   22.4820000  
C 14.1990000   17.4610000   22.3520000  
C 14.6860000   17.8750000   21.0880000  
C 15.9760000   18.3340000   20.8830000  
C 17.0240000   18.2670000   21.7520000  
C 16.6020000   17.8370000   23.0150000  
C 15.2320000   17.6370000   23.3500000  
C 14.0620000   17.8670000   19.7600000  
C 15.0190000   18.3980000   18.8680000  
N 16.2080000   18.6580000   19.5420000  
O 13.6730000   17.9100000   16.9330000  
C 14.8660000   18.4100000   17.4010000  
O 15.7670000   18.8870000   16.6380000  
O 17.5630000   17.7250000   23.9830000  
O 14.8570000   17.2870000   24.6030000  
H 13.0620000   17.5510000   19.4580000  
H 13.1990000   17.4070000   17.6420000  
H 17.0220000   19.0700000   19.1130000  
H 18.4750000   17.8020000   23.6210000  
H 13.8780000   17.1220000   24.5070000  
C 18.4150000   18.6710000   21.2970000  
C 18.9060000   19.9810000   21.4880000  
C 20.2680000   20.2100000   21.3350000  
C 21.2330000   19.2450000   20.9000000  
C 20.7100000   17.9750000   20.6400000  
C 19.3890000   17.6420000   20.9810000  
C 18.3440000   21.1560000   22.0810000  
C 19.4090000   22.0330000   22.3160000  
N 20.5550000   21.4990000   21.7680000  
O 18.3360000   23.8840000   23.2840000  
C 19.4900000   23.4060000   22.8510000  
O 20.4860000   24.0790000   22.8080000  
O 21.5360000   17.0120000   20.0190000  
O 18.9840000   16.3130000   20.9190000  
H 17.2900000   21.3200000   22.2710000  
H 17.6840000   23.1300000   23.2380000  
H 21.4010000   22.0220000   21.6270000  
H 22.4360000   17.2610000   19.6720000  
H 18.0820000   16.1410000   21.2470000  
C 22.7110000   19.5400000   20.7340000  
C 23.6450000   18.9850000   21.6030000  
C 25.0080000   19.2210000   21.4610000  
C 25.5180000   20.0740000   20.5300000  
C 24.6270000   20.7500000   19.7160000  
C 23.2600000   20.5530000   19.8610000  
C 23.5290000   17.9320000   22.5970000  
C 24.7750000   17.5630000   22.9810000  
N 25.7130000   18.3490000   22.2590000  
O 24.2090000   16.1520000   24.7780000  
C 25.1910000   16.6100000   24.0090000  
O 26.3300000   16.3200000   24.2100000  
O 25.0880000   21.7470000   18.8590000  
O 22.3900000   21.3440000   19.1240000  
H 22.6120000   17.4700000   22.8940000  
H 23.5210000   16.7550000   24.4570000  
H 26.8090000   18.3260000   22.3600000  
H 24.3480000   22.0010000   18.2470000  
H 21.5570000   20.8050000   18.9700000  
H 26.5360000   20.1970000   20.4380000  
