76
101 
C 14.9110000   21.5330000   27.4760000  
C 15.9500000   21.7340000   28.4680000  
C 17.2420000   21.3840000   28.2180000  
C 17.6170000   20.7940000   27.0310000  
C 16.7220000   20.5830000   25.9860000  
C 15.4090000   20.8780000   26.1850000  
C 18.3670000   21.5000000   29.0360000  
C 19.3550000   20.8420000   28.2860000  
N 18.9010000   20.4220000   27.0280000  
O 20.9560000   21.1950000   29.9740000  
C 20.6960000   20.5280000   28.8300000  
O 21.4380000   19.8240000   28.1890000  
O 14.4910000   20.5500000   25.2490000  
O 13.7070000   21.8820000   27.5670000  
H 15.6940000   22.2900000   29.4190000  
H 18.3480000   21.9300000   29.9860000  
H 20.0980000   21.5070000   30.2290000  
H 14.9770000   19.9430000   24.7120000  
C 17.0830000   19.8260000   24.8050000  
C 16.7570000   18.4770000   24.6810000  
C 17.1460000   17.7920000   23.5850000  
C 18.0280000   18.3230000   22.5710000  
C 18.3250000   19.7570000   22.6650000  
C 17.8680000   20.4520000   23.7800000  
C 15.9230000   17.6420000   25.5110000  
C 15.9150000   16.4100000   24.8150000  
N 16.7380000   16.4760000   23.6520000  
O 14.6990000   15.3670000   26.4680000  
C 15.3580000   15.1730000   25.3610000  
O 15.4790000   14.0690000   24.7750000  
O 19.0560000   20.3430000   21.7130000  
O 18.3050000   21.7390000   23.9210000  
H 15.3910000   17.9290000   26.4240000  
H 14.7780000   16.2720000   26.7350000  
H 16.8700000   15.7450000   22.9790000  
H 19.4910000   19.6090000   21.2430000  
H 17.8660000   22.1590000   24.6910000  
C 18.3620000   17.5400000   21.3290000  
C 17.7530000   17.8580000   20.0550000  
C 17.9440000   17.1370000   18.9980000  
C 18.7980000   16.0270000   18.8820000  
C 19.5210000   15.7120000   20.1220000  
C 19.2470000   16.3990000   21.3220000  
C 16.9400000   19.0380000   19.5490000  
C 16.7640000   18.8620000   18.1980000  
N 17.2460000   17.5880000   17.9080000  
O 15.4880000   20.8040000   17.7600000  
C 16.1000000   19.7160000   17.1990000  
O 16.0190000   19.4740000   16.0220000  
O 20.5330000   14.7720000   20.1780000  
O 19.9960000   16.1670000   22.4130000  
H 16.6950000   19.9300000   20.0900000  
H 15.9120000   20.7780000   18.6500000  
H 17.1970000   17.1540000   17.0030000  
H 20.9610000   15.1400000   20.9430000  
H 19.8970000   16.8280000   23.1290000  
C 18.9830000   15.2320000   17.6440000  
C 19.5330000   15.8520000   16.4950000  
C 19.7330000   15.1530000   15.3490000  
C 19.2850000   13.8170000   15.2480000  
C 18.7410000   13.2400000   16.3540000  
C 18.5420000   13.9570000   17.5540000  
C 19.9150000   17.2510000   16.2300000  
C 20.2550000   17.2810000   14.8730000  
N 20.1150000   15.9860000   14.3400000  
O 21.0500000   19.4540000   14.9920000  
C 20.8580000   18.4200000   14.1620000  
O 21.2270000   18.4520000   13.0210000  
O 18.2110000   11.9790000   16.2930000  
O 17.9350000   13.4140000   18.6530000  
H 20.0550000   17.9810000   17.0200000  
H 20.4740000   19.2410000   15.7370000  
H 20.4090000   15.6720000   13.4410000  
H 17.9920000   11.7450000   17.2330000  
H 17.9770000   14.1040000   19.2810000  
H 19.2310000   13.2980000   14.3090000  
