76
101 
C 15.1160000   11.1890000   23.2770000  
C 16.2350000   10.1950000   23.3860000  
C 17.5060000   10.6180000   23.1600000  
C 17.8420000   11.9580000   22.7790000  
C 16.8520000   13.0060000   22.7330000  
C 15.5180000   12.6010000   22.9410000  
C 18.7520000    9.9160000   23.0700000  
C 19.6580000   10.8070000   22.6050000  
N 19.1230000   12.1040000   22.4550000  
O 21.4170000    9.3060000   22.1140000  
C 21.0000000   10.5890000   22.1770000  
O 21.6910000   11.5050000   21.7610000  
O 14.4120000   13.4410000   22.8740000  
O 13.9330000   10.7990000   23.4160000  
H 15.8440000    9.1990000   23.5310000  
H 18.8600000    8.8770000   23.0040000  
H 20.6800000    8.7750000   22.3670000  
H 14.6850000   14.3510000   22.9520000  
C 17.2760000   14.3570000   22.4940000  
C 17.0230000   15.0350000   21.2330000  
C 17.3290000   16.3480000   21.0970000  
C 17.8600000   17.2160000   22.0670000  
C 18.1570000   16.5560000   23.2830000  
C 17.8270000   15.2080000   23.5300000  
C 16.2140000   14.7480000   20.1020000  
C 16.0790000   15.9390000   19.3770000  
N 16.8110000   16.9390000   20.0270000  
O 14.4240000   15.1630000   17.8180000  
C 15.2360000   16.1920000   18.1580000  
O 15.1730000   17.3340000   17.6550000  
O 18.8460000   17.3390000   24.1750000  
O 18.1840000   14.6720000   24.7680000  
H 15.6530000   13.8590000   20.0120000  
H 14.5430000   14.3990000   18.4930000  
H 17.0250000   17.8410000   19.6730000  
H 19.0680000   18.1920000   23.7710000  
H 18.3590000   13.7280000   24.6830000  
C 18.2590000   18.6200000   21.7560000  
C 17.3940000   19.7100000   22.1210000  
C 17.7650000   20.9630000   21.6730000  
C 18.8150000   21.3000000   20.8840000  
C 19.7390000   20.2200000   20.5670000  
C 19.4420000   18.8970000   21.0300000  
C 16.0450000   19.8650000   22.7490000  
C 15.7450000   21.2360000   22.6520000  
N 16.8730000   21.9290000   22.1180000  
O 13.5600000   20.9850000   23.4110000  
C 14.4810000   21.8280000   22.9320000  
O 14.2500000   23.0370000   22.8170000  
O 20.8880000   20.4610000   19.9270000  
O 20.2270000   17.8200000   20.6230000  
H 15.3690000   19.1280000   23.1660000  
H 14.0670000   20.1860000   23.6570000  
H 16.9000000   22.9570000   21.9740000  
H 21.4340000   19.7070000   20.1640000  
H 19.6620000   17.0480000   20.7190000  
C 19.1650000   22.7100000   20.4280000  
C 19.7020000   23.6670000   21.3110000  
C 19.9470000   24.9900000   20.8280000  
C 19.4900000   25.5320000   19.5930000  
C 18.8610000   24.6270000   18.7280000  
C 18.8200000   23.1950000   19.0950000  
C 20.2610000   23.6080000   22.6860000  
C 20.7620000   24.8910000   22.9310000  
N 20.5490000   25.7190000   21.8430000  
O 21.4950000   24.4140000   25.2010000  
C 21.3480000   25.3540000   24.2110000  
O 21.6850000   26.4880000   24.3540000  
O 18.5560000   24.9750000   17.4800000  
O 18.3510000   22.3540000   18.1340000  
H 20.1980000   22.7930000   23.3600000  
H 21.2010000   23.5250000   24.8340000  
H 20.7290000   26.7370000   21.9080000  
H 18.3290000   24.2030000   16.9290000  
H 18.3330000   21.4400000   18.4890000  
H 19.4510000   26.6450000   19.4090000  
