76
101 
C 18.4390000   21.5250000   28.2930000  
C 19.3290000   20.7350000   29.1600000  
C 19.8180000   19.5210000   28.7670000  
C 19.5200000   19.0080000   27.5450000  
C 18.6760000   19.7140000   26.6160000  
C 18.1510000   20.9080000   26.9450000  
C 20.6940000   18.6280000   29.3780000  
C 20.8820000   17.6220000   28.4650000  
N 20.1480000   17.8450000   27.3380000  
O 22.1600000   16.3710000   30.0350000  
C 21.6890000   16.4490000   28.7650000  
O 21.7190000   15.5920000   27.9260000  
O 17.4480000   21.7560000   26.0610000  
O 17.9950000   22.6070000   28.6580000  
H 19.5510000   21.2460000   30.1470000  
H 21.2140000   18.7480000   30.2880000  
H 22.0070000   17.2010000   30.5220000  
H 17.5050000   21.2610000   25.2390000  
C 18.4330000   19.2090000   25.2040000  
C 17.2260000   18.6880000   24.7230000  
C 17.0450000   18.1070000   23.4800000  
C 18.0450000   17.9550000   22.5110000  
C 19.3130000   18.3670000   22.9850000  
C 19.4950000   18.9740000   24.2400000  
C 15.9410000   18.7700000   25.3910000  
C 15.0740000   18.1730000   24.4830000  
N 15.7490000   17.6800000   23.3290000  
O 13.2150000   18.4610000   25.9010000  
C 13.5620000   17.9440000   24.7250000  
O 12.8290000   17.4030000   23.9550000  
O 20.4110000   17.9610000   22.3010000  
O 20.7780000   19.1950000   24.5770000  
H 15.8020000   19.1260000   26.3370000  
H 14.1050000   18.6990000   26.2400000  
H 15.2860000   17.2740000   22.5200000  
H 20.2060000   17.2560000   21.6930000  
H 20.7450000   19.7110000   25.4060000  
C 17.7920000   17.4350000   21.1550000  
C 17.6660000   18.3510000   20.1330000  
C 17.3550000   17.9370000   18.8250000  
C 17.0640000   16.6250000   18.4860000  
C 17.0780000   15.6780000   19.5600000  
C 17.5240000   16.0930000   20.8630000  
C 17.8490000   19.8010000   20.0380000  
C 17.7620000   20.0720000   18.6550000  
N 17.4350000   18.9330000   17.9220000  
O 18.2760000   22.3790000   18.8740000  
C 17.9710000   21.3350000   18.0370000  
O 17.9150000   21.5020000   16.8630000  
O 16.8290000   14.3380000   19.3840000  
O 17.6050000   15.2080000   21.8650000  
H 18.0970000   20.4550000   20.9080000  
H 18.2050000   21.8970000   19.6600000  
H 17.1710000   18.8750000   16.9490000  
H 17.3180000   13.8350000   20.0450000  
H 17.8880000   15.7040000   22.6670000  
C 16.8080000   16.1940000   17.0870000  
C 17.7550000   16.4510000   16.0390000  
C 17.4030000   16.3310000   14.7770000  
C 16.1990000   15.7630000   14.3700000  
C 15.3010000   15.3980000   15.3930000  
C 15.6290000   15.5530000   16.7290000  
C 19.1000000   17.0530000   16.0890000  
C 19.5050000   17.1650000   14.8260000  
N 18.4590000   16.8000000   13.9850000  
O 21.4660000   18.4070000   15.2570000  
C 20.6970000   17.8440000   14.3260000  
O 20.9990000   17.9740000   13.1540000  
O 14.0920000   14.9840000   14.9780000  
O 14.6280000   15.1880000   17.6140000  
H 19.6810000   17.3320000   16.9470000  
H 20.9290000   18.4800000   16.0310000  
H 18.5010000   16.9250000   12.9750000  
H 13.5700000   14.7870000   15.7420000  
H 14.9650000   15.3030000   18.5740000  
H 16.0030000   15.5850000   13.3640000  
