76
101 
C 10.6280000   18.3820000   23.0810000  
C 10.0570000   16.9830000   23.1360000  
C 10.8980000   15.9050000   22.9670000  
C 12.3030000   16.0390000   22.8260000  
C 12.9660000   17.2990000   22.7410000  
C 12.1360000   18.4300000   22.9090000  
C 10.6580000   14.5050000   23.0400000  
C 11.8550000   13.9330000   22.9050000  
N 12.9030000   14.8380000   22.8330000  
O 10.8910000   11.8440000   23.3200000  
C 12.0620000   12.4700000   23.0200000  
O 13.1210000   11.9180000   22.9680000  
O 12.6670000   19.6670000   22.9520000  
O  9.8800000   19.3230000   23.1460000  
H  9.0060000   16.8930000   23.3910000  
H  9.7040000   14.0530000   23.2300000  
H 10.2920000   12.6000000   23.2790000  
H 13.6180000   19.5340000   22.6790000  
C 14.4350000   17.3700000   22.4820000  
C 14.7960000   17.9300000   21.2560000  
C 16.1230000   18.0900000   20.9820000  
C 17.2030000   17.7740000   21.7960000  
C 16.8250000   17.2190000   23.0230000  
C 15.4520000   17.0590000   23.3950000  
C 14.0710000   18.2540000   20.0440000  
C 14.9790000   18.7330000   19.1170000  
N 16.2740000   18.6820000   19.7510000  
O 13.4890000   19.0750000   17.3360000  
C 14.7770000   19.1630000   17.6810000  
O 15.5500000   19.5700000   16.9070000  
O 17.8540000   16.9340000   23.9380000  
O 15.1940000   16.4970000   24.5850000  
H 12.9860000   18.2800000   19.8850000  
H 13.0560000   18.9610000   18.2280000  
H 17.1350000   18.9970000   19.3030000  
H 18.7280000   16.8680000   23.4290000  
H 14.2220000   16.4290000   24.5900000  
C 18.6220000   18.1800000   21.4770000  
C 19.2510000   19.3300000   22.0230000  
C 20.5340000   19.6620000   21.6840000  
C 21.3450000   19.0080000   20.7390000  
C 20.7160000   17.8800000   20.1070000  
C 19.3600000   17.5030000   20.4310000  
C 18.9090000   20.0790000   23.1790000  
C 20.0230000   20.8570000   23.5090000  
N 21.0240000   20.5780000   22.5600000  
O 19.1060000   21.8360000   25.3940000  
C 20.2260000   21.6290000   24.6720000  
O 21.3320000   22.0000000   24.9590000  
O 21.5220000   17.1840000   19.3040000  
O 18.7240000   16.4910000   19.7750000  
H 17.9560000   20.1050000   23.7960000  
H 18.4810000   21.4890000   24.7340000  
H 21.9890000   20.8290000   22.6740000  
H 22.4040000   17.5900000   19.2840000  
H 18.0130000   16.1780000   20.3210000  
C 22.7210000   19.5210000   20.5050000  
C 23.9170000   18.8380000   20.8670000  
C 25.1990000   19.3000000   20.5500000  
C 25.4080000   20.5540000   19.9180000  
C 24.2580000   21.2750000   19.6050000  
C 22.9720000   20.8170000   19.9580000  
C 24.1910000   17.5620000   21.5320000  
C 25.5950000   17.4580000   21.7700000  
N 26.2290000   18.5420000   21.0920000  
O 25.5210000   15.4910000   23.2630000  
C 26.2450000   16.3090000   22.4040000  
O 27.3970000   16.0030000   22.2000000  
O 24.4130000   22.4890000   18.9180000  
O 21.8660000   21.4840000   19.4380000  
H 23.3760000   16.9490000   21.9550000  
H 24.6720000   15.9130000   23.4440000  
H 27.2390000   18.4720000   20.8850000  
H 23.7490000   23.1460000   19.2320000  
H 21.0600000   21.2620000   19.9520000  
H 26.3630000   20.9980000   19.5280000  
