76
101 
C 19.0300000   16.4580000   28.6380000  
C 20.3740000   15.9510000   28.8220000  
C 21.2710000   15.8810000   27.8060000  
C 21.0320000   16.4810000   26.5810000  
C 19.7420000   17.0790000   26.3420000  
C 18.7200000   17.0040000   27.2890000  
C 22.5560000   15.4130000   27.7720000  
C 23.0150000   15.7240000   26.5050000  
N 22.0230000   16.4520000   25.7230000  
O 25.0630000   14.5510000   26.7620000  
C 24.3220000   15.3710000   26.0030000  
O 24.6940000   15.7610000   24.8870000  
O 17.4810000   17.3700000   27.0300000  
O 18.2300000   16.4880000   29.5120000  
H 20.5480000   15.5130000   29.7490000  
H 23.0980000   15.0760000   28.5970000  
H 24.7230000   14.6690000   27.6780000  
H 17.3680000   17.6090000   26.1060000  
C 19.5180000   17.4580000   24.9710000  
C 19.1270000   16.4430000   24.0880000  
C 18.6410000   16.7390000   22.8490000  
C 18.6280000   18.0560000   22.3060000  
C 19.1610000   19.0820000   23.1850000  
C 19.4930000   18.7780000   24.5520000  
C 18.8810000   15.0150000   24.2550000  
C 18.2020000   14.5550000   23.1250000  
N 17.9790000   15.6510000   22.2480000  
O 17.8360000   12.2190000   23.7220000  
C 17.6020000   13.2440000   22.8750000  
O 16.9000000   13.0450000   21.9240000  
O 19.1080000   20.4210000   22.7840000  
O 19.7240000   19.7770000   25.4550000  
H 19.2030000   14.5320000   25.1560000  
H 18.3810000   12.6450000   24.4140000  
H 17.4850000   15.6750000   21.3820000  
H 18.6790000   20.4800000   21.9520000  
H 19.7460000   19.3500000   26.3670000  
C 18.0890000   18.3130000   20.9270000  
C 16.7550000   18.2230000   20.6850000  
C 16.2480000   18.5700000   19.4500000  
C 17.0960000   19.0290000   18.3830000  
C 18.5100000   19.1050000   18.6300000  
C 19.0190000   18.7270000   19.8660000  
C 15.6270000   17.8070000   21.4680000  
C 14.5150000   17.8660000   20.5970000  
N 14.8890000   18.4640000   19.3760000  
O 12.8640000   16.9820000   22.1260000  
C 13.0720000   17.4630000   20.9150000  
O 12.1400000   17.5780000   20.1250000  
O 19.3220000   19.5980000   17.6310000  
O 20.3710000   18.6900000   20.0990000  
H 15.6920000   17.4240000   22.4930000  
H 13.7070000   17.1000000   22.6010000  
H 14.2520000   18.6110000   18.6150000  
H 20.2140000   19.6340000   18.0200000  
H 20.5340000   18.3850000   21.0520000  
C 16.4670000   19.5430000   17.0810000  
C 16.2890000   20.9660000   16.8260000  
C 15.7490000   21.4260000   15.6330000  
C 15.2160000   20.6040000   14.6450000  
C 15.3520000   19.2060000   14.8710000  
C 16.0270000   18.6440000   16.0740000  
C 16.5430000   22.1550000   17.6060000  
C 16.0480000   23.2450000   16.9560000  
N 15.6150000   22.7940000   15.6990000  
O 16.4510000   24.6410000   18.7160000  
C 15.8490000   24.5770000   17.5040000  
O 15.2990000   25.5010000   16.9200000  
O 14.9090000   18.3380000   13.8750000  
O 16.1620000   17.3180000   16.2900000  
H 16.7930000   22.0950000   18.6630000  
H 16.7560000   23.7480000   18.8190000  
H 15.2320000   23.4490000   14.9610000  
H 14.9070000   17.3900000   14.1430000  
H 15.8690000   16.7050000   15.6010000  
H 14.5790000   21.0040000   13.8530000  
