76
101 
C 10.9280000   15.9920000   20.0760000  
C 10.1030000   17.0400000   20.5920000  
C 10.7090000   18.0730000   21.2350000  
C 12.0590000   18.1780000   21.5380000  
C 12.9320000   17.1680000   20.9950000  
C 12.4100000   16.1040000   20.3490000  
C 10.1940000   19.3050000   21.6480000  
C 11.2050000   20.0030000   22.3090000  
N 12.3660000   19.2130000   22.2320000  
O  9.7840000   21.8090000   22.7650000  
C 11.0880000   21.3650000   22.8030000  
O 11.9750000   22.0770000   23.2690000  
O 13.1850000   15.1090000   19.8060000  
O 10.5180000   15.1920000   19.2790000  
H  9.0330000   16.9780000   20.4160000  
H  9.2210000   19.7350000   21.4400000  
H  9.1770000   21.0620000   22.4070000  
H 14.0220000   15.3790000   20.1780000  
C 14.3870000   17.2700000   21.1860000  
C 15.0030000   16.6490000   22.2710000  
C 16.3330000   16.7550000   22.5410000  
C 17.2590000   17.4880000   21.7500000  
C 16.6400000   18.0900000   20.6660000  
C 15.2530000   17.9890000   20.3740000  
C 14.4380000   15.9590000   23.4140000  
C 15.4750000   15.4490000   24.1130000  
N 16.6800000   16.0400000   23.6330000  
O 14.0720000   14.3240000   25.6490000  
C 15.3410000   14.4310000   25.1950000  
O 16.2450000   13.8030000   25.7830000  
O 17.4820000   18.7440000   19.8070000  
O 14.7750000   18.7250000   19.3100000  
H 13.3710000   15.8180000   23.5070000  
H 13.7060000   15.0910000   25.2170000  
H 17.5640000   15.9350000   23.9950000  
H 18.3980000   18.5580000   20.1320000  
H 13.8250000   18.6600000   19.3580000  
C 18.7420000   17.7090000   22.1810000  
C 19.8040000   17.4110000   21.3000000  
C 21.0960000   17.7840000   21.5830000  
C 21.4990000   18.5150000   22.6720000  
C 20.4630000   18.8040000   23.5980000  
C 19.1240000   18.3810000   23.3510000  
C 19.8440000   16.6600000   20.0080000  
C 21.1380000   16.5950000   19.6230000  
N 21.9370000   17.3020000   20.5820000  
O 20.8450000   15.0660000   17.8280000  
C 21.7240000   15.8970000   18.4310000  
O 22.8760000   15.9410000   18.1010000  
O 20.8410000   19.5200000   24.6900000  
O 18.0970000   18.8080000   24.1500000  
H 18.9340000   16.3810000   19.4730000  
H 20.0080000   15.2530000   18.3000000  
H 22.9310000   17.3300000   20.5940000  
H 20.0400000   19.6080000   25.2610000  
H 17.2860000   18.5260000   23.7370000  
C 22.9450000   18.9630000   22.8190000  
C 23.6620000   19.6170000   21.7920000  
C 25.0040000   19.8910000   21.8320000  
C 25.6860000   19.6050000   22.9880000  
C 25.0590000   18.9250000   24.0150000  
C 23.7040000   18.5470000   23.9350000  
C 23.1490000   20.1650000   20.5830000  
C 24.2160000   20.8530000   19.9640000  
N 25.3540000   20.6790000   20.7940000  
O 23.0850000   21.5020000   17.9970000  
C 24.2300000   21.6050000   18.6450000  
O 25.1890000   22.1160000   18.0990000  
O 25.7620000   18.4860000   25.0400000  
O 23.1260000   17.8260000   24.9620000  
H 22.1890000   19.9430000   20.0350000  
H 22.5580000   21.0440000   18.6510000  
H 26.2830000   20.9610000   20.6620000  
H 25.1130000   17.9440000   25.4990000  
H 22.1620000   18.1160000   25.0210000  
H 26.7380000   19.8380000   23.1670000  
