76
101 
C 11.8650000   18.6480000   25.7730000  
C 10.7930000   18.0000000   25.1100000  
C 10.9660000   17.5160000   23.7880000  
C 12.2230000   17.6190000   23.1310000  
C 13.3020000   18.3340000   23.7200000  
C 13.0860000   18.8390000   24.9870000  
C 10.1260000   16.7830000   22.8720000  
C 10.8260000   16.6890000   21.6760000  
N 12.1170000   17.1710000   21.8740000  
O  9.1070000   15.9280000   20.2560000  
C 10.3790000   16.2770000   20.3280000  
O 11.1370000   16.3230000   19.3550000  
O 14.0960000   19.2840000   25.7110000  
O 11.8430000   18.8670000   26.9570000  
H  9.8670000   17.7430000   25.6730000  
H  9.0670000   16.6820000   23.0290000  
H  8.6170000   16.3190000   21.0280000  
H 14.8800000   19.1880000   25.0810000  
C 14.5920000   18.3060000   23.0130000  
C 15.1770000   19.4400000   22.5800000  
C 16.4250000   19.3960000   22.0320000  
C 17.2890000   18.2660000   21.9810000  
C 16.6960000   17.0940000   22.5340000  
C 15.3770000   17.1070000   22.9660000  
C 14.7430000   20.8300000   22.6180000  
C 15.8340000   21.5680000   22.1350000  
N 16.8770000   20.6630000   21.7630000  
O 14.9780000   23.7410000   22.2470000  
C 16.0630000   23.0040000   21.9720000  
O 17.1180000   23.5350000   21.6150000  
O 17.3830000   15.8900000   22.5530000  
O 14.8440000   15.9190000   23.4070000  
H 13.7770000   21.2630000   22.9530000  
H 14.2180000   23.1920000   22.4110000  
H 17.7750000   20.8370000   21.4160000  
H 18.2510000   16.1080000   22.1130000  
H 13.9770000   16.1740000   23.8130000  
C 18.7010000   18.2700000   21.5070000  
C 19.7330000   17.8920000   22.4050000  
C 21.0200000   17.7940000   21.9520000  
C 21.4190000   18.2610000   20.6480000  
C 20.4110000   18.7130000   19.7910000  
C 19.0780000   18.6890000   20.1860000  
C 19.7810000   17.4970000   23.7930000  
C 21.1340000   17.3890000   24.1380000  
N 21.8990000   17.6040000   22.9630000  
O 20.7720000   16.9280000   26.4850000  
C 21.6430000   17.1340000   25.4990000  
O 22.8230000   17.1020000   25.7660000  
O 20.7170000   19.0100000   18.5090000  
O 18.1460000   19.0730000   19.2530000  
H 18.9250000   17.5060000   24.4600000  
H 19.9030000   16.9660000   26.0490000  
H 22.9080000   17.2610000   23.0170000  
H 21.5820000   18.5790000   18.4420000  
H 17.3770000   18.5970000   19.5510000  
C 22.8800000   18.1990000   20.2180000  
C 23.1920000   17.3390000   19.1720000  
C 24.4880000   17.2900000   18.7100000  
C 25.5530000   17.9280000   19.3810000  
C 25.2170000   18.7180000   20.4440000  
C 23.8870000   18.9340000   20.8820000  
C 22.4670000   16.3830000   18.4620000  
C 23.3630000   15.8540000   17.5060000  
N 24.5820000   16.4560000   17.6990000  
O 21.9140000   14.1630000   16.6460000  
C 23.1050000   14.7620000   16.5330000  
O 23.9270000   14.3070000   15.7640000  
O 26.1590000   19.1930000   21.3110000  
O 23.5510000   19.9040000   21.8340000  
H 21.3980000   16.0460000   18.5810000  
H 21.3870000   14.6350000   17.2770000  
H 25.4800000   16.1980000   17.2790000  
H 25.7190000   19.5450000   22.1060000  
H 22.5830000   19.9940000   21.8800000  
H 26.5350000   17.8440000   19.0710000  
