76
101 
C 15.9090000   11.1570000   22.8140000  
C 16.8800000   10.4340000   23.6780000  
C 18.0580000   11.0220000   24.0520000  
C 18.3940000   12.3550000   23.8140000  
C 17.5190000   13.1310000   22.9600000  
C 16.3040000   12.5870000   22.5490000  
C 19.1800000   10.5050000   24.8070000  
C 20.1000000   11.5390000   24.9120000  
N 19.6340000   12.6480000   24.1870000  
O 21.6860000   10.3430000   26.2830000  
C 21.4270000   11.4490000   25.5450000  
O 22.1650000   12.4270000   25.5110000  
O 15.3510000   13.2630000   21.9710000  
O 14.9160000   10.6300000   22.3470000  
H 16.7610000    9.3420000   23.7980000  
H 19.2650000    9.4530000   25.2250000  
H 20.9440000    9.7250000   26.0800000  
H 15.6920000   14.2030000   21.9110000  
C 17.8310000   14.5410000   22.6970000  
C 17.9850000   14.9630000   21.3710000  
C 18.1780000   16.3250000   21.1270000  
C 18.2220000   17.2780000   22.1030000  
C 17.9210000   16.8560000   23.4470000  
C 17.7490000   15.4920000   23.7220000  
C 18.1200000   14.2920000   20.1000000  
C 18.5220000   15.3400000   19.1990000  
N 18.3580000   16.5760000   19.7830000  
O 18.7840000   13.8930000   17.2950000  
C 18.8920000   15.1860000   17.7860000  
O 19.2270000   16.1510000   17.0310000  
O 17.8490000   17.8080000   24.4570000  
O 17.6720000   15.0740000   25.0070000  
H 18.0740000   13.2420000   19.9650000  
H 18.2250000   13.3810000   17.8720000  
H 18.4210000   17.4600000   19.2450000  
H 17.9320000   18.7250000   24.1020000  
H 18.1410000   14.2370000   24.9110000  
C 18.2360000   18.7390000   21.7570000  
C 17.0630000   19.4360000   21.3970000  
C 17.2350000   20.6720000   20.9170000  
C 18.4770000   21.4480000   20.8550000  
C 19.6200000   20.7050000   21.2430000  
C 19.5090000   19.3530000   21.6730000  
C 15.6600000   19.1100000   21.2250000  
C 15.0240000   20.2890000   20.7960000  
N 16.0300000   21.2230000   20.5130000  
O 12.7130000   19.4600000   21.1810000  
C 13.5200000   20.4740000   20.6610000  
O 13.1250000   21.4930000   20.1270000  
O 20.9070000   21.2260000   21.2500000  
O 20.5780000   18.5020000   21.9130000  
H 15.1790000   18.2360000   21.7640000  
H 13.2220000   18.7190000   21.5660000  
H 15.9230000   22.1080000   20.0770000  
H 21.5790000   20.5120000   21.2280000  
H 20.3000000   17.6650000   21.4210000  
C 18.5630000   22.7760000   20.1830000  
C 18.5490000   23.9550000   20.9370000  
C 18.4370000   25.1370000   20.3060000  
C 18.4410000   25.3190000   18.9290000  
C 18.4420000   24.1280000   18.1430000  
C 18.6030000   22.8600000   18.7340000  
C 18.4240000   24.1780000   22.3640000  
C 18.2310000   25.5500000   22.5120000  
N 18.3060000   26.1410000   21.2230000  
O 18.1850000   25.6200000   24.8540000  
C 18.1870000   26.3640000   23.7030000  
O 18.2530000   27.5660000   23.6700000  
O 18.2200000   24.1370000   16.8340000  
O 18.5240000   21.7020000   18.0160000  
H 18.3600000   23.4210000   23.1430000  
H 18.0790000   24.6980000   24.7080000  
H 18.2230000   27.0720000   20.9160000  
H 18.3950000   23.2470000   16.4790000  
H 18.2190000   21.0220000   18.6170000  
H 18.2040000   26.2620000   18.4440000  
