76
101 
C 11.7270000   14.7940000   20.4780000  
C 11.4650000   13.6060000   21.2800000  
C 12.2860000   13.2620000   22.3280000  
C 13.4880000   13.8810000   22.5370000  
C 13.8230000   15.0530000   21.8180000  
C 12.9600000   15.5000000   20.8680000  
C 12.2190000   12.1590000   23.1800000  
C 13.4220000   12.2350000   23.8790000  
N 14.2390000   13.3160000   23.5150000  
O 12.9700000   10.2970000   25.1020000  
C 13.8030000   11.2910000   24.9510000  
O 14.7690000   11.4360000   25.6970000  
O 13.2120000   16.5930000   20.0930000  
O 10.9910000   15.1540000   19.5730000  
H 10.5290000   13.1200000   20.9980000  
H 11.4770000   11.3720000   23.2250000  
H 12.2190000   10.4200000   24.4690000  
H 14.0550000   16.9890000   20.4760000  
C 15.0630000   15.7440000   21.9710000  
C 16.0110000   15.7350000   20.8680000  
C 17.1030000   16.5600000   20.8940000  
C 17.4530000   17.4000000   21.9960000  
C 16.4660000   17.4410000   23.0610000  
C 15.3010000   16.5710000   23.1140000  
C 15.9990000   15.1410000   19.5670000  
C 17.1890000   15.5000000   18.9390000  
N 17.8750000   16.4090000   19.7870000  
O 17.0120000   14.0460000   17.0330000  
C 17.6940000   15.0170000   17.6320000  
O 18.7090000   15.5310000   17.1570000  
O 16.5830000   18.3890000   24.0190000  
O 14.3510000   16.6080000   24.0840000  
H 15.3360000   14.3700000   19.1440000  
H 16.1100000   14.0380000   17.4140000  
H 18.8440000   16.6780000   19.6280000  
H 17.3880000   18.9550000   23.8670000  
H 14.0330000   15.7010000   24.1840000  
C 18.5730000   18.3920000   22.0180000  
C 18.7690000   19.3990000   21.0450000  
C 19.9350000   20.0990000   20.9670000  
C 20.9820000   20.1680000   21.9340000  
C 20.7940000   19.2200000   22.9490000  
C 19.6900000   18.3050000   22.9100000  
C 18.0100000   19.7470000   19.8470000  
C 18.7680000   20.6430000   19.1530000  
N 19.8720000   20.9270000   19.9000000  
O 17.4240000   20.7610000   17.2110000  
C 18.4870000   21.2500000   17.8200000  
O 19.2140000   21.9330000   17.1340000  
O 21.7160000   19.1550000   23.9150000  
O 19.6050000   17.3260000   23.7990000  
H 17.1380000   19.2050000   19.6070000  
H 16.9700000   20.2120000   17.8180000  
H 20.6740000   21.5780000   19.7220000  
H 22.1360000   20.0500000   24.0250000  
H 18.9710000   16.6010000   23.5180000  
C 22.1350000   21.1970000   21.8010000  
C 22.2960000   22.2980000   22.7370000  
C 23.3910000   23.2010000   22.5940000  
C 24.2880000   23.0420000   21.5210000  
C 24.1210000   22.0230000   20.6130000  
C 23.0940000   21.0570000   20.7690000  
C 21.5970000   22.7920000   23.9050000  
C 22.3500000   23.8280000   24.5020000  
N 23.4010000   24.0990000   23.6760000  
O 21.1810000   24.0000000   26.5660000  
C 22.1740000   24.4580000   25.8740000  
O 22.8540000   25.3120000   26.3590000  
O 24.9140000   22.0130000   19.5220000  
O 23.0650000   19.9600000   19.8950000  
H 20.6930000   22.4040000   24.2550000  
H 20.7270000   23.3430000   26.0020000  
H 24.1730000   24.6830000   23.9250000  
H 24.7080000   21.1660000   19.0960000  
H 22.2210000   19.5220000   20.0810000  
H 25.0590000   23.7610000   21.4330000  
