76
101 
C 11.6670000   14.5890000   19.4200000  
C 10.5330000   15.3850000   19.9820000  
C 10.8400000   16.5580000   20.7470000  
C 12.1220000   16.9570000   21.0250000  
C 13.2670000   16.2830000   20.4500000  
C 13.0740000   15.1350000   19.6960000  
C 10.0050000   17.4300000   21.5510000  
C 10.8620000   18.2710000   22.1630000  
N 12.1960000   18.0110000   21.8450000  
O  9.2360000   19.4900000   23.1720000  
C 10.5660000   19.3400000   23.0820000  
O 11.3430000   20.0520000   23.7050000  
O 14.0430000   14.4160000   19.1760000  
O 11.4370000   13.5030000   18.8230000  
H  9.6180000   15.1130000   19.5580000  
H  8.9210000   17.3130000   21.5880000  
H  8.7670000   18.8090000   22.5660000  
H 14.9670000   14.8130000   19.2960000  
C 14.6410000   16.8400000   20.7140000  
C 15.1130000   16.7800000   22.0420000  
C 16.3330000   17.3500000   22.3120000  
C 17.2080000   17.9420000   21.3820000  
C 16.7610000   17.9740000   20.0220000  
C 15.4260000   17.5140000   19.7000000  
C 14.5250000   16.4000000   23.3440000  
C 15.5010000   16.7590000   24.2590000  
N 16.6050000   17.3260000   23.6530000  
O 14.3090000   15.9500000   26.2330000  
C 15.4630000   16.5260000   25.7840000  
O 16.3330000   16.8580000   26.5340000  
O 17.6010000   18.4140000   19.0880000  
O 15.0100000   17.5340000   18.4110000  
H 13.4530000   16.0900000   23.5000000  
H 13.9300000   15.5870000   25.4750000  
H 17.3380000   17.8940000   24.1170000  
H 18.4480000   18.6590000   19.4470000  
H 14.0460000   17.6950000   18.3150000  
C 18.5160000   18.5410000   21.8180000  
C 19.7000000   17.8660000   21.3890000  
C 20.9280000   18.2250000   21.7760000  
C 21.2060000   19.3800000   22.4670000  
C 20.1090000   20.1210000   22.9850000  
C 18.7680000   19.7460000   22.5970000  
C 19.9830000   16.6850000   20.5310000  
C 21.3120000   16.3390000   20.6620000  
N 21.9240000   17.3030000   21.5050000  
O 21.1400000   14.3200000   19.3450000  
C 22.0000000   15.1890000   19.8970000  
O 23.1780000   14.9950000   19.7890000  
O 20.3090000   21.1430000   23.8900000  
O 17.6650000   20.4720000   22.9980000  
H 19.2760000   15.9960000   20.0890000  
H 20.2720000   14.5820000   19.6620000  
H 22.8680000   17.4690000   21.7780000  
H 19.5200000   21.3330000   24.2970000  
H 16.9190000   20.0240000   22.6220000  
C 22.5780000   19.7060000   22.8570000  
C 23.4990000   19.9850000   21.8290000  
C 24.7530000   20.4130000   22.1590000  
C 25.2640000   20.3970000   23.4760000  
C 24.3790000   20.1790000   24.4810000  
C 23.0100000   19.8690000   24.1900000  
C 23.3530000   20.1120000   20.4010000  
C 24.4930000   20.7630000   19.9450000  
N 25.4240000   20.7680000   20.9660000  
O 23.7680000   20.9950000   17.7300000  
C 24.8370000   21.0690000   18.5360000  
O 25.8970000   21.4890000   18.0960000  
O 24.8040000   20.1500000   25.7540000  
O 22.1870000   19.5300000   25.2550000  
H 22.4730000   19.8690000   19.8280000  
H 23.0710000   20.5050000   18.1790000  
H 26.3900000   21.0530000   20.8390000  
H 23.9550000   20.0280000   26.1940000  
H 21.2830000   19.5100000   24.8440000  
H 26.2250000   20.6470000   23.7680000  
