76
101 
C 16.8180000   10.8930000   20.2160000  
C 15.7440000   10.4270000   21.2020000  
C 15.1600000   11.3690000   22.0050000  
C 15.4270000   12.7220000   22.0480000  
C 16.4220000   13.2680000   21.1640000  
C 17.0930000   12.3460000   20.2980000  
C 14.0910000   11.1680000   22.9650000  
C 13.8310000   12.4450000   23.5180000  
N 14.6960000   13.4060000   22.8640000  
O 12.3800000   11.7720000   25.2980000  
C 12.9140000   12.8020000   24.5840000  
O 12.7080000   13.9880000   24.8720000  
O 17.9730000   12.7490000   19.3530000  
O 17.4050000   10.1270000   19.5270000  
H 15.5800000    9.3350000   21.2340000  
H 13.4960000   10.2070000   23.1300000  
H 12.7320000   10.9400000   24.9580000  
H 18.0750000   13.6970000   19.5300000  
C 16.8410000   14.6750000   21.4060000  
C 17.9400000   15.0000000   22.2230000  
C 18.3010000   16.3420000   22.3680000  
C 17.7090000   17.3820000   21.6560000  
C 16.5000000   17.1030000   20.9810000  
C 16.0680000   15.7540000   20.9350000  
C 19.0090000   14.2880000   22.8590000  
C 19.9470000   15.1830000   23.2490000  
N 19.5720000   16.4800000   22.9010000  
O 21.4000000   13.5220000   24.0760000  
C 21.2070000   14.8580000   23.9210000  
O 22.0790000   15.6370000   24.3030000  
O 15.7500000   18.0720000   20.3530000  
O 14.8920000   15.5760000   20.2190000  
H 18.9770000   13.1950000   23.0410000  
H 20.5090000   13.2310000   23.9110000  
H 19.9990000   17.3300000   23.0880000  
H 14.8390000   17.8020000   20.2700000  
H 14.6980000   14.6100000   20.1300000  
C 18.2460000   18.7770000   21.8600000  
C 19.4310000   19.1810000   21.1510000  
C 19.8770000   20.4760000   21.2150000  
C 19.2500000   21.4810000   22.0140000  
C 18.1980000   21.0120000   22.8520000  
C 17.6390000   19.7120000   22.7000000  
C 20.3250000   18.4370000   20.2870000  
C 21.2260000   19.4130000   19.8100000  
N 20.9860000   20.6590000   20.4610000  
O 22.1250000   17.9070000   18.1800000  
C 22.1060000   19.1400000   18.6820000  
O 22.7680000   20.0900000   18.2970000  
O 17.4270000   21.9690000   23.5380000  
O 16.4770000   19.4030000   23.4330000  
H 20.3050000   17.4200000   19.9350000  
H 21.5500000   17.3640000   18.7810000  
H 21.5770000   21.5410000   20.3400000  
H 17.8610000   22.8220000   23.4410000  
H 16.2480000   18.4620000   23.3450000  
C 19.5940000   22.9550000   22.0100000  
C 18.6930000   23.8930000   21.5650000  
C 19.0010000   25.2020000   21.6380000  
C 20.2250000   25.6540000   22.1020000  
C 21.2390000   24.7370000   22.4230000  
C 20.8530000   23.3390000   22.4870000  
C 17.3650000   23.7440000   21.0410000  
C 16.8910000   25.0350000   20.7450000  
N 17.9200000   25.9640000   21.1090000  
O 14.8580000   24.2370000   19.8430000  
C 15.6380000   25.2730000   20.1030000  
O 15.1970000   26.3900000   19.8980000  
O 22.5620000   25.0920000   22.5590000  
O 21.7150000   22.3710000   22.9100000  
H 17.0040000   22.6770000   20.8400000  
H 15.4230000   23.4790000   20.1070000  
H 17.9610000   26.9580000   20.9400000  
H 23.0250000   24.2420000   22.6180000  
H 21.1400000   21.6490000   23.2020000  
H 20.4620000   26.6890000   22.0340000  
