76
101 
C 13.2820000   12.8980000   19.7470000  
C 13.0200000   11.8610000   20.7900000  
C 13.7040000   11.9820000   21.9690000  
C 14.4850000   13.0860000   22.3870000  
C 14.5570000   14.2090000   21.4370000  
C 14.0050000   14.1340000   20.1490000  
C 13.7440000   11.0960000   23.1140000  
C 14.3620000   11.7980000   24.1630000  
N 14.9560000   12.9750000   23.6450000  
O 13.8370000   10.1820000   25.7680000  
C 14.3830000   11.4130000   25.6510000  
O 14.7670000   12.0520000   26.6270000  
O 14.0740000   15.1570000   19.2250000  
O 12.8290000   12.7120000   18.6360000  
H 12.4360000   10.9910000   20.4810000  
H 13.1010000   10.2090000   23.1650000  
H 13.7830000    9.7640000   24.9100000  
H 14.5100000   15.9430000   19.5960000  
C 15.3860000   15.3530000   21.7720000  
C 16.6600000   15.4360000   21.1310000  
C 17.5460000   16.4130000   21.3920000  
C 17.2510000   17.5490000   22.2010000  
C 16.0160000   17.4290000   22.8860000  
C 15.0890000   16.4030000   22.6510000  
C 17.2010000   14.5730000   20.1080000  
C 18.3960000   15.1960000   19.7020000  
N 18.5940000   16.3690000   20.5050000  
O 18.9570000   13.4210000   18.1780000  
C 19.2480000   14.7060000   18.6410000  
O 20.1510000   15.2930000   18.0800000  
O 15.6420000   18.4400000   23.7460000  
O 13.9040000   16.3650000   23.4080000  
H 16.7200000   13.7360000   19.6290000  
H 18.1720000   13.0950000   18.5670000  
H 19.3530000   17.0850000   20.3410000  
H 16.3080000   19.1140000   23.8030000  
H 13.3630000   15.6200000   23.0140000  
C 18.2000000   18.7360000   22.3230000  
C 18.6380000   19.4620000   21.1980000  
C 19.4960000   20.5240000   21.4580000  
C 20.1830000   20.7920000   22.6300000  
C 19.7410000   20.0220000   23.7310000  
C 18.7570000   19.0420000   23.5610000  
C 18.3660000   19.4850000   19.7980000  
C 19.2430000   20.4320000   19.2170000  
N 19.8790000   21.0960000   20.3260000  
O 18.7010000   20.0440000   16.8660000  
C 19.2450000   20.8500000   17.8180000  
O 19.7520000   21.8770000   17.5390000  
O 20.2160000   20.3100000   24.9700000  
O 18.4200000   18.2550000   24.6730000  
H 17.5890000   18.8860000   19.3450000  
H 18.3290000   19.2500000   17.3120000  
H 20.3800000   21.9670000   20.3100000  
H 20.3300000   21.2660000   25.0420000  
H 17.9240000   17.4800000   24.3840000  
C 21.2930000   21.7310000   22.8070000  
C 21.1450000   23.1020000   22.6000000  
C 22.1770000   24.0120000   22.6030000  
C 23.5040000   23.6380000   22.8420000  
C 23.6900000   22.2650000   23.1550000  
C 22.5840000   21.3550000   23.1940000  
C 19.9750000   23.8660000   22.1840000  
C 20.3240000   25.1140000   21.8500000  
N 21.6660000   25.2590000   22.2060000  
O 18.3550000   25.9650000   20.7000000  
C 19.6410000   26.2030000   21.1090000  
O 20.2450000   27.2210000   20.7740000  
O 24.9500000   21.7820000   23.3180000  
O 22.8570000   20.0250000   23.4550000  
H 18.9270000   23.3870000   22.1430000  
H 18.2600000   25.1050000   21.0600000  
H 22.2750000   26.0940000   22.1840000  
H 24.7340000   20.8600000   23.5030000  
H 22.0280000   19.5000000   23.3650000  
H 24.3700000   24.3390000   22.7710000  
