76
101 
C 14.2020000   21.2490000   27.2550000  
C 15.1450000   21.9330000   28.1960000  
C 16.5240000   21.7940000   27.9040000  
C 17.0390000   21.0770000   26.8400000  
C 16.1640000   20.4080000   25.9570000  
C 14.8110000   20.5430000   26.1250000  
C 17.5880000   22.3430000   28.6310000  
C 18.7100000   22.0150000   27.8300000  
N 18.3490000   21.2020000   26.6860000  
O 20.0740000   23.6440000   28.9310000  
C 20.0650000   22.5740000   28.1480000  
O 21.0830000   22.1570000   27.6680000  
O 14.0170000   20.1310000   25.0950000  
O 12.9840000   21.3930000   27.2810000  
H 14.7530000   22.5610000   29.0410000  
H 17.5170000   22.9920000   29.4650000  
H 19.1520000   23.6840000   29.1280000  
H 14.6700000   19.6630000   24.5730000  
C 16.6890000   19.6930000   24.8020000  
C 16.6180000   18.2940000   24.7020000  
C 17.1550000   17.6660000   23.6310000  
C 17.8270000   18.3480000   22.5790000  
C 17.7930000   19.7930000   22.5720000  
C 17.1480000   20.4000000   23.5980000  
C 16.1730000   17.2240000   25.5570000  
C 16.3520000   16.0200000   24.8870000  
N 17.0470000   16.2560000   23.7070000  
O 15.4870000   14.5760000   26.6150000  
C 15.9550000   14.6350000   25.3510000  
O 16.1470000   13.6380000   24.7380000  
O 18.4050000   20.4100000   21.5040000  
O 17.1650000   21.7270000   23.6660000  
H 15.7510000   17.3900000   26.5630000  
H 15.4070000   15.4840000   26.8460000  
H 17.4030000   15.6510000   23.0510000  
H 18.7970000   19.7440000   20.9100000  
H 17.0780000   22.0550000   24.5810000  
C 18.3340000   17.5810000   21.4090000  
C 17.5970000   17.5170000   20.1870000  
C 18.1210000   16.8540000   19.1140000  
C 19.3190000   16.1080000   19.0730000  
C 19.9380000   15.9530000   20.3710000  
C 19.5010000   16.7260000   21.4500000  
C 16.3720000   18.0610000   19.7240000  
C 16.1470000   17.6040000   18.4520000  
N 17.2330000   16.8340000   18.0850000  
O 14.1110000   18.8380000   18.1140000  
C 14.9940000   18.0460000   17.5230000  
O 14.8370000   17.7960000   16.3340000  
O 21.1830000   15.3760000   20.5240000  
O 20.3530000   16.7090000   22.5590000  
H 15.7730000   18.6850000   20.2740000  
H 14.3630000   18.9760000   19.0020000  
H 17.4810000   16.3910000   17.2440000  
H 21.2810000   14.9120000   21.3910000  
H 20.0490000   17.4770000   23.0870000  
C 19.6990000   15.3420000   17.8140000  
C 20.2180000   15.9840000   16.6090000  
C 20.6090000   15.3160000   15.5020000  
C 20.4250000   13.9310000   15.3850000  
C 19.8930000   13.2540000   16.5290000  
C 19.5540000   13.9210000   17.7380000  
C 20.4980000   17.3320000   16.3850000  
C 20.9570000   17.4560000   15.0810000  
N 21.0220000   16.1740000   14.5070000  
O 21.6980000   19.6380000   15.2240000  
C 21.5030000   18.6370000   14.3870000  
O 21.8430000   18.6740000   13.2190000  
O 19.8830000   11.9410000   16.5820000  
O 18.8620000   13.2800000   18.7470000  
H 20.3020000   18.1230000   17.0500000  
H 21.4090000   19.2790000   16.0770000  
H 21.4990000   15.8790000   13.6430000  
H 19.8850000   11.7650000   17.5460000  
H 18.9100000   13.9890000   19.4500000  
H 20.7610000   13.4310000   14.4480000  
