76
101 
C 11.6030000   19.0570000   25.2760000  
C 10.4930000   18.5220000   24.4420000  
C 10.7820000   17.7360000   23.3500000  
C 12.0670000   17.3920000   22.9470000  
C 13.1820000   17.8450000   23.7300000  
C 12.9620000   18.7000000   24.8040000  
C  9.9060000   17.0110000   22.5570000  
C 10.7100000   16.2520000   21.7170000  
N 12.0610000   16.5750000   21.9120000  
O  8.9880000   15.6110000   20.3380000  
C 10.2000000   15.3620000   20.7270000  
O 10.8390000   14.4490000   20.2230000  
O 13.9040000   19.4840000   25.5050000  
O 11.3460000   19.6050000   26.3260000  
H  9.4420000   18.7750000   24.7120000  
H  8.8750000   16.8990000   22.6260000  
H  8.6010000   16.4370000   20.7440000  
H 14.7940000   19.2680000   25.1600000  
C 14.5350000   17.8610000   23.1420000  
C 15.0200000   18.8890000   22.3420000  
C 16.2840000   18.7760000   21.7930000  
C 17.1920000   17.7350000   22.0280000  
C 16.6990000   16.7230000   22.8720000  
C 15.3540000   16.7720000   23.3630000  
C 14.5150000   20.1810000   22.0650000  
C 15.4930000   20.8730000   21.2970000  
N 16.5590000   19.9450000   21.0970000  
O 14.3120000   22.9100000   21.2490000  
C 15.4350000   22.2790000   20.9190000  
O 16.3180000   22.6880000   20.2110000  
O 17.4140000   15.5820000   23.0780000  
O 14.9200000   15.8080000   24.1370000  
H 13.6280000   20.6610000   22.4800000  
H 13.7130000   22.2480000   21.6640000  
H 17.3440000   20.1600000   20.4930000  
H 18.2820000   15.6510000   22.6580000  
H 14.2630000   16.1390000   24.7280000  
C 18.6060000   17.8540000   21.5310000  
C 19.6870000   17.9950000   22.3930000  
C 20.9640000   18.2030000   21.9410000  
C 21.3350000   18.3430000   20.6230000  
C 20.3060000   18.1900000   19.6730000  
C 18.9810000   17.9080000   20.0840000  
C 19.7930000   17.9780000   23.8230000  
C 21.1270000   18.0840000   24.1700000  
N 21.8380000   18.2880000   22.9600000  
O 20.8920000   18.0640000   26.5370000  
C 21.7840000   18.0620000   25.5000000  
O 22.9500000   18.0920000   25.7560000  
O 20.4880000   18.2720000   18.3010000  
O 18.0520000   17.8990000   19.1290000  
H 19.0270000   17.7050000   24.5350000  
H 19.9640000   17.9180000   26.2230000  
H 22.8570000   18.2540000   22.8920000  
H 21.4320000   18.4880000   18.1170000  
H 17.2110000   17.4930000   19.3790000  
C 22.7560000   18.6490000   20.1060000  
C 23.5510000   17.7380000   19.4270000  
C 24.8040000   18.0920000   19.0280000  
C 25.3690000   19.2720000   19.2570000  
C 24.6440000   20.2480000   19.9050000  
C 23.3150000   19.9110000   20.3070000  
C 23.4260000   16.3160000   19.1700000  
C 24.6730000   15.8650000   18.7000000  
N 25.4570000   17.0340000   18.4770000  
O 24.1480000   13.5820000   18.7760000  
C 25.0450000   14.5050000   18.3890000  
O 25.9760000   14.2440000   17.6880000  
O 25.1010000   21.5050000   20.0750000  
O 22.6470000   20.8500000   21.0790000  
H 22.5860000   15.7130000   19.5220000  
H 23.5540000   14.0700000   19.3550000  
H 26.2640000   17.0680000   17.8990000  
H 24.2430000   21.9070000   20.2420000  
H 21.9390000   20.4010000   21.5640000  
H 26.4210000   19.5040000   19.0140000  
