76
101 
C 20.7980000   11.6640000   23.4120000  
C 19.8540000   10.5790000   23.4020000  
C 18.5440000   10.7580000   22.9960000  
C 18.0850000   12.0180000   22.6380000  
C 18.9820000   13.1190000   22.6290000  
C 20.3430000   12.9840000   22.9140000  
C 17.4110000    9.9670000   22.8820000  
C 16.3520000   10.8220000   22.5700000  
N 16.8030000   12.1250000   22.3620000  
O 14.6640000    9.1720000   23.0080000  
C 14.9130000   10.4570000   22.6020000  
O 14.0960000   11.2670000   22.3260000  
O 21.1740000   13.9870000   22.8790000  
O 21.9850000   11.4250000   23.6770000  
H 20.2270000    9.6670000   23.7160000  
H 17.3290000    8.9080000   23.0230000  
H 15.4950000    8.6310000   22.9980000  
H 20.6430000   14.7940000   22.9470000  
C 18.5040000   14.4310000   22.1700000  
C 18.2910000   15.4460000   23.1540000  
C 17.9710000   16.7220000   22.8420000  
C 17.7470000   17.2210000   21.5290000  
C 17.9040000   16.2010000   20.5270000  
C 18.3000000   14.7960000   20.8230000  
C 18.4680000   15.4000000   24.5640000  
C 18.1320000   16.6160000   25.0850000  
N 17.9540000   17.5200000   23.9860000  
O 17.9980000   16.0610000   27.5090000  
C 17.9780000   17.0420000   26.4910000  
O 17.8180000   18.2510000   26.8080000  
O 17.8250000   16.6320000   19.2800000  
O 18.6590000   14.0090000   19.7160000  
H 18.6200000   14.3610000   25.0280000  
H 18.0840000   15.2310000   27.0280000  
H 17.6370000   18.4700000   23.9750000  
H 18.2070000   15.9370000   18.7010000  
H 18.6980000   13.0590000   19.8730000  
C 17.6050000   18.6890000   21.2880000  
C 18.6660000   19.5210000   21.5500000  
C 18.5690000   20.9080000   21.3000000  
C 17.4360000   21.5670000   20.8390000  
C 16.2790000   20.7320000   20.7060000  
C 16.3630000   19.3170000   20.8660000  
C 20.0690000   19.2870000   21.9040000  
C 20.6430000   20.5510000   22.0420000  
N 19.7750000   21.4950000   21.5590000  
O 22.6810000   19.6730000   22.9420000  
C 21.9610000   20.7350000   22.5820000  
O 22.3250000   21.9030000   22.8010000  
O 15.1310000   21.3200000   20.4150000  
O 15.3000000   18.5070000   20.7440000  
H 20.5570000   18.3580000   22.1250000  
H 22.1560000   18.8860000   22.8850000  
H 19.9480000   22.4870000   21.4360000  
H 15.2690000   22.2700000   20.1550000  
H 15.6280000   17.6220000   20.7470000  
C 17.3850000   22.9990000   20.7260000  
C 17.3360000   23.6620000   19.4440000  
C 17.1200000   25.0080000   19.3140000  
C 17.1550000   25.8380000   20.4480000  
C 17.2760000   25.2610000   21.7350000  
C 17.3520000   23.8820000   21.8180000  
C 17.2720000   23.1070000   18.1160000  
C 16.8820000   24.1410000   17.2750000  
N 17.0010000   25.3580000   17.9610000  
O 16.3430000   22.5890000   15.6030000  
C 16.3180000   23.9260000   15.9650000  
O 15.8010000   24.7310000   15.2460000  
O 17.3440000   26.1120000   22.8320000  
O 17.4610000   23.3120000   23.0790000  
H 17.2810000   22.0450000   17.9070000  
H 16.7190000   22.2440000   16.4410000  
H 16.5610000   26.2210000   17.6130000  
H 17.8410000   25.6920000   23.5580000  
H 16.8570000   22.5580000   23.2310000  
H 17.0220000   26.9190000   20.3770000  
