76
110 
C 16.3280000   11.3460000   16.6820000  
C 14.9140000   10.8160000   16.6410000  
C 13.9520000   11.5010000   17.3800000  
C 14.1560000   12.5740000   18.2450000  
C 15.5140000   12.9310000   18.4770000  
C 16.5840000   12.4310000   17.6970000  
C 12.5750000   11.2370000   17.5300000  
C 12.0800000   12.0970000   18.4850000  
N 13.0890000   12.8770000   18.9980000  
O  9.8890000   11.2080000   18.2720000  
C 10.6780000   12.1040000   18.8870000  
O 10.2260000   12.7870000   19.7340000  
O 17.8350000   12.9080000   17.7670000  
O 17.2010000   10.8240000   16.0320000  
H 14.7140000    9.9130000   16.0000000  
H 11.9180000   10.4470000   17.1130000  
H 10.5170000   10.6220000   17.7560000  
H 17.7850000   13.6360000   18.4200000  
C 15.7700000   14.0710000   19.3700000  
C 16.0500000   13.8630000   20.7220000  
C 16.4490000   14.8200000   21.5910000  
C 16.4050000   16.1730000   21.3230000  
C 15.9220000   16.4990000   19.9700000  
C 15.5700000   15.4680000   19.0460000  
C 16.2740000   12.6460000   21.3890000  
C 16.9290000   12.8560000   22.6450000  
N 17.1580000   14.2410000   22.7120000  
O 17.2000000   10.5930000   23.1110000  
C 17.4400000   11.7870000   23.5910000  
O 18.0270000   11.9970000   24.6300000  
O 15.8310000   17.8250000   19.5880000  
O 14.9830000   15.8500000   17.8180000  
H 16.0880000   11.6500000   21.0010000  
H 16.8660000   10.8230000   22.2710000  
H 17.5520000   14.7570000   23.5360000  
H 15.2570000   17.9330000   18.7890000  
H 14.8470000   15.0460000   17.2530000  
C 16.9590000   17.2290000   22.2740000  
C 18.3210000   17.4700000   22.4810000  
C 18.7330000   18.5110000   23.3030000  
C 17.8870000   19.4340000   23.9740000  
C 16.5170000   19.1750000   23.8490000  
C 16.0760000   18.1340000   22.9560000  
C 19.4870000   16.6740000   22.1040000  
C 20.5450000   17.2870000   22.7600000  
N 20.1450000   18.5120000   23.3360000  
O 21.9770000   15.5530000   22.1420000  
C 21.9130000   16.7430000   22.6790000  
O 22.8370000   17.3590000   23.0700000  
O 15.6230000   19.9430000   24.4410000  
O 14.7170000   17.9550000   22.7770000  
H 19.5590000   15.7050000   21.5580000  
H 21.1960000   15.4960000   21.5410000  
H 20.6930000   19.1930000   23.8740000  
H 14.9060000   20.0100000   23.8160000  
H 14.6570000   17.1510000   22.2000000  
C 18.4080000   20.5020000   24.8660000  
C 19.4680000   21.3190000   24.4490000  
C 20.1110000   22.1870000   25.2700000  
C 19.7360000   22.3340000   26.5740000  
C 18.7030000   21.5550000   27.0490000  
C 18.0650000   20.6110000   26.2330000  
C 19.9430000   21.6250000   23.1490000  
C 21.0360000   22.4420000   23.2220000  
N 21.1040000   22.8770000   24.5410000  
O 21.6690000   22.2750000   20.8410000  
C 21.9860000   22.7740000   22.1060000  
O 22.9770000   23.4860000   22.2160000  
O 18.2730000   21.7410000   28.3420000  
O 17.1900000   19.7770000   26.8300000  
H 19.6080000   21.1380000   22.2570000  
H 20.7810000   21.8900000   21.0040000  
H 21.6310000   23.7350000   24.8460000  
H 17.5330000   21.1450000   28.4190000  
H 16.7380000   19.1980000   26.1530000  
H 20.2320000   23.0640000   27.2730000  
