76
110 
C 10.1150000   15.0490000   21.3370000  
C  9.3490000   16.0420000   22.1100000  
C 10.0090000   17.2110000   22.5530000  
C 11.3780000   17.4320000   22.4590000  
C 12.1520000   16.5150000   21.6520000  
C 11.5800000   15.3700000   21.1260000  
C  9.4840000   18.2490000   23.2800000  
C 10.5600000   19.1130000   23.5480000  
N 11.7320000   18.5980000   23.0800000  
O  9.2730000   20.5990000   24.9370000  
C 10.4390000   20.4040000   24.3250000  
O 11.3580000   21.2030000   24.4570000  
O 12.2110000   14.4460000   20.3960000  
O  9.6480000   13.9630000   20.9230000  
H  8.3140000   15.8430000   22.3470000  
H  8.4240000   18.4340000   23.5000000  
H  8.7310000   19.8270000   24.6730000  
H 13.1720000   14.6390000   20.3480000  
C 13.6350000   16.6400000   21.5380000  
C 14.3590000   16.2850000   22.6430000  
C 15.6860000   16.3200000   22.5640000  
C 16.4640000   16.7090000   21.4250000  
C 15.7080000   17.1770000   20.3030000  
C 14.2980000   17.1280000   20.3720000  
C 13.9990000   15.7620000   23.9410000  
C 15.2270000   15.4930000   24.5700000  
N 16.2730000   16.0100000   23.7980000  
O 14.2960000   14.6920000   26.6730000  
C 15.4160000   14.9020000   25.9580000  
O 16.4820000   14.7150000   26.4670000  
O 16.3070000   17.5940000   19.1020000  
O 13.6430000   17.4860000   19.1650000  
H 13.0750000   15.4820000   24.3520000  
H 13.4700000   14.8380000   26.1370000  
H 17.2630000   15.9720000   24.2060000  
H 15.7360000   18.3600000   18.6610000  
H 12.6970000   17.7330000   19.3410000  
C 17.9260000   16.5130000   21.3840000  
C 18.6540000   15.2640000   21.5260000  
C 20.0090000   15.3430000   21.4090000  
C 20.7660000   16.5250000   21.3060000  
C 20.0670000   17.7370000   21.1440000  
C 18.6850000   17.7170000   21.2460000  
C 18.2800000   13.8540000   21.7190000  
C 19.4640000   13.1130000   21.7800000  
N 20.5220000   14.0130000   21.5130000  
O 18.3720000   11.0470000   21.9150000  
C 19.5550000   11.6510000   21.8630000  
O 20.5890000   11.0220000   21.9730000  
O 20.7200000   18.9110000   20.9250000  
O 18.0890000   18.9790000   21.1490000  
H 17.2980000   13.4370000   21.7360000  
H 17.7020000   11.7710000   21.8880000  
H 21.5220000   13.8130000   21.4490000  
H 21.5280000   18.7760000   20.4260000  
H 18.7970000   19.5840000   20.8170000  
C 22.2250000   16.5340000   21.3260000  
C 22.9590000   16.9810000   20.2220000  
C 24.3600000   17.1980000   20.3290000  
C 25.0520000   16.9100000   21.5480000  
C 24.2900000   16.4280000   22.6160000  
C 22.8810000   16.3370000   22.5270000  
C 22.5830000   17.2800000   18.8490000  
C 23.7310000   17.7540000   18.1720000  
N 24.8010000   17.7800000   19.1530000  
O 22.9180000   17.7850000   15.9790000  
C 23.9320000   18.1200000   16.7650000  
O 24.9700000   18.6940000   16.3950000  
O 24.9980000   15.9160000   23.6620000  
O 22.2460000   15.7150000   23.5780000  
H 21.5650000   17.2200000   18.3990000  
H 22.1850000   17.5190000   16.5910000  
H 25.7670000   18.0690000   18.9730000  
H 24.4630000   15.2540000   24.1130000  
H 21.3750000   15.4660000   23.2130000  
H 26.1100000   17.0390000   21.5630000  
