76
110 
C 16.6350000    9.0270000   20.9400000  
C 17.9920000    8.5740000   20.5320000  
C 18.9930000    9.4810000   20.4020000  
C 18.9160000   10.8480000   20.6980000  
C 17.6420000   11.3440000   21.1640000  
C 16.5380000   10.4960000   21.3030000  
C 20.3460000    9.2230000   19.9680000  
C 20.9480000   10.4620000   20.0250000  
N 20.0310000   11.4900000   20.4980000  
O 23.0660000    9.6730000   19.2780000  
C 22.3980000   10.6980000   19.8160000  
O 22.8880000   11.8110000   20.0970000  
O 15.3240000   11.0070000   21.6530000  
O 15.7180000    8.2720000   21.0600000  
H 18.1240000    7.4930000   20.1890000  
H 20.8000000    8.2650000   19.6490000  
H 22.3780000    9.0760000   18.9780000  
H 15.4120000   11.9620000   21.8550000  
C 17.5920000   12.7410000   21.4700000  
C 16.8310000   13.6270000   20.6370000  
C 16.8790000   14.9740000   20.9040000  
C 17.6040000   15.6590000   21.8730000  
C 18.3390000   14.7220000   22.7220000  
C 18.3650000   13.3480000   22.5060000  
C 16.0780000   13.4340000   19.4510000  
C 15.7350000   14.6880000   18.9740000  
N 16.3250000   15.6700000   19.8710000  
O 14.5080000   14.0500000   16.8630000  
C 14.8630000   15.0260000   17.7490000  
O 14.3920000   16.1030000   17.5170000  
O 18.9650000   15.1510000   23.8270000  
O 19.1380000   12.6030000   23.3840000  
H 15.7700000   12.5190000   18.9740000  
H 15.1050000   13.3000000   17.1320000  
H 16.5540000   16.5760000   19.5900000  
H 19.7610000   14.6140000   23.9580000  
H 19.1640000   11.6300000   23.1720000  
C 17.6600000   17.1150000   21.8610000  
C 16.4560000   17.8590000   21.8600000  
C 16.3890000   19.2000000   22.0450000  
C 17.5100000   20.0160000   22.0900000  
C 18.7220000   19.3420000   22.0590000  
C 18.8070000   17.9190000   22.0740000  
C 15.0930000   17.4430000   21.7520000  
C 14.2860000   18.5960000   21.8740000  
N 15.1220000   19.6630000   22.0360000  
O 12.2980000   17.4880000   21.3690000  
C 12.8220000   18.6580000   21.6740000  
O 12.1710000   19.6690000   21.7750000  
O 19.8710000   20.0280000   22.2270000  
O 19.9520000   17.2970000   22.2640000  
H 14.7030000   16.4120000   21.6460000  
H 13.1410000   16.9600000   21.3430000  
H 14.8100000   20.5870000   22.3390000  
H 19.6490000   21.0000000   22.1590000  
H 20.5450000   18.0220000   22.5130000  
C 17.4170000   21.4430000   22.3190000  
C 16.9160000   21.9380000   23.5690000  
C 16.8510000   23.2570000   23.8870000  
C 17.3320000   24.1770000   22.9430000  
C 17.7540000   23.7860000   21.6880000  
C 17.7860000   22.4020000   21.3670000  
C 16.3800000   21.3070000   24.7500000  
C 16.1110000   22.2570000   25.7260000  
N 16.3890000   23.4940000   25.1520000  
O 15.3950000   20.6480000   27.3600000  
C 15.6940000   21.9720000   27.0810000  
O 15.6890000   22.8520000   27.8990000  
O 18.0450000   24.8100000   20.8040000  
O 18.0370000   22.0670000   20.0180000  
H 16.3490000   20.2390000   24.9290000  
H 15.4820000   20.1920000   26.5100000  
H 16.0970000   24.3980000   25.5170000  
H 17.9340000   24.4150000   19.9060000  
H 18.3230000   21.1330000   20.0490000  
H 17.2920000   25.1890000   23.1900000  
