76
110 
C 18.6120000    9.9150000   18.2680000  
C 17.4230000    9.4310000   17.6000000  
C 16.3040000   10.2190000   17.7250000  
C 16.2290000   11.3890000   18.5120000  
C 17.4060000   12.0160000   19.0460000  
C 18.5650000   11.3020000   18.9340000  
C 15.0180000   10.0790000   17.2420000  
C 14.2350000   11.1390000   17.7260000  
N 15.0200000   12.0000000   18.4770000  
O 12.1200000   10.4750000   16.7090000  
C 12.8120000   11.4260000   17.4360000  
O 12.2760000   12.4740000   17.8130000  
O 19.7540000   11.7340000   19.4700000  
O 19.5660000    9.1920000   18.3220000  
H 17.5040000    8.4800000   17.0940000  
H 14.6630000    9.2590000   16.7450000  
H 12.7910000    9.8250000   16.4060000  
H 19.5030000   12.3730000   20.1490000  
C 17.3180000   13.2990000   19.6160000  
C 16.7350000   13.5060000   20.8550000  
C 16.6800000   14.7590000   21.4150000  
C 17.1760000   15.8970000   20.8200000  
C 17.8590000   15.7440000   19.6100000  
C 17.8500000   14.4700000   18.9740000  
C 16.0960000   12.6080000   21.7760000  
C 15.8800000   13.3270000   22.9710000  
N 16.1410000   14.6750000   22.6810000  
O 15.5760000   11.3170000   24.3220000  
C 15.5760000   12.7010000   24.2790000  
O 15.5180000   13.4110000   25.2590000  
O 18.6610000   16.7320000   19.1010000  
O 18.4800000   14.3180000   17.7470000  
H 15.7650000   11.5460000   21.6470000  
H 15.7470000   10.8770000   23.4720000  
H 16.3370000   15.3900000   23.3510000  
H 18.8630000   16.2830000   18.2500000  
H 18.4400000   13.3780000   17.5650000  
C 17.0790000   17.2140000   21.5600000  
C 17.9440000   17.6340000   22.6220000  
C 17.8750000   18.9210000   23.2090000  
C 16.9690000   19.9150000   22.8010000  
C 16.1140000   19.4720000   21.7190000  
C 16.0890000   18.1250000   21.2030000  
C 19.0750000   17.0030000   23.3030000  
C 19.3530000   17.8280000   24.3670000  
N 18.6830000   19.0390000   24.3240000  
O 21.1470000   16.4210000   25.0770000  
C 20.4300000   17.5480000   25.3700000  
O 20.6800000   18.3250000   26.2660000  
O 15.2500000   20.4050000   21.1780000  
O 15.2560000   17.8570000   20.2470000  
H 19.5200000   15.9980000   23.1140000  
H 20.8450000   16.1520000   24.1510000  
H 18.8370000   19.8660000   25.0150000  
H 14.6220000   19.9120000   20.5740000  
H 15.5030000   17.0620000   19.8030000  
C 16.7970000   21.1960000   23.5880000  
C 17.8980000   22.0240000   23.8680000  
C 17.8310000   23.1420000   24.6560000  
C 16.5770000   23.5450000   25.2360000  
C 15.4360000   22.7910000   24.9230000  
C 15.5180000   21.6080000   24.1230000  
C 19.2740000   21.8240000   23.5140000  
C 19.9760000   22.8560000   24.0850000  
N 19.1520000   23.6630000   24.8310000  
O 22.0900000   22.3650000   23.0940000  
C 21.4320000   23.2090000   23.8970000  
O 22.0290000   23.9900000   24.5760000  
O 14.2870000   23.1770000   25.5370000  
O 14.4190000   20.8280000   24.0070000  
H 19.5820000   21.0790000   22.7550000  
H 21.3750000   21.8720000   22.7010000  
H 19.4860000   24.4760000   25.3880000  
H 13.5310000   22.5840000   25.2990000  
H 14.5940000   20.2290000   23.2600000  
H 16.4790000   24.4220000   25.8800000  
