76
110 
C 13.7780000   10.2180000   19.3060000  
C 13.3070000   10.4970000   17.9630000  
C 13.4430000   11.7740000   17.4700000  
C 14.0500000   12.7860000   18.1870000  
C 14.6430000   12.5290000   19.4880000  
C 14.5170000   11.3040000   20.0470000  
C 13.0030000   12.2700000   16.2160000  
C 13.3000000   13.6350000   16.2860000  
N 14.0150000   13.8860000   17.4720000  
O 12.5630000   14.2050000   14.1800000  
C 13.1270000   14.6840000   15.2700000  
O 13.6140000   15.7860000   15.2300000  
O 15.1720000   10.8560000   21.1790000  
O 13.6420000    9.0860000   19.7560000  
H 12.8500000    9.6750000   17.4880000  
H 12.4700000   11.7780000   15.3550000  
H 12.6760000   13.2520000   14.2980000  
H 15.5040000   11.6140000   21.7310000  
C 15.5110000   13.5820000   20.0490000  
C 15.1630000   14.2210000   21.2540000  
C 15.9890000   15.2070000   21.8000000  
C 17.1420000   15.6040000   21.1520000  
C 17.6120000   14.7570000   20.0790000  
C 16.8090000   13.7740000   19.5560000  
C 13.9270000   14.2670000   22.0500000  
C 14.1750000   15.1350000   23.1180000  
N 15.4560000   15.7100000   22.9600000  
O 12.1740000   14.6480000   24.2360000  
C 13.2420000   15.4290000   24.1810000  
O 13.4410000   16.3310000   24.9310000  
O 18.8100000   15.1450000   19.5950000  
O 17.2380000   12.9500000   18.6610000  
H 12.9930000   13.7200000   22.0280000  
H 12.3790000   13.9480000   23.5410000  
H 15.8270000   16.5460000   23.4960000  
H 19.0230000   14.6880000   18.8060000  
H 16.6020000   12.2620000   18.4120000  
C 17.9310000   16.7670000   21.7370000  
C 18.3000000   16.7840000   23.1240000  
C 18.9490000   17.8190000   23.7400000  
C 19.0200000   19.0870000   23.1310000  
C 18.8470000   19.1290000   21.7090000  
C 18.2750000   17.9930000   21.0690000  
C 18.1430000   15.7600000   24.1640000  
C 18.6290000   16.3300000   25.3440000  
N 19.1260000   17.6350000   25.0980000  
O 17.9800000   14.4700000   26.6410000  
C 18.7210000   15.5860000   26.6260000  
O 19.3630000   15.9740000   27.6440000  
O 18.8820000   20.3290000   21.0500000  
O 17.8410000   18.2300000   19.7840000  
H 17.8120000   14.7110000   24.0730000  
H 17.5520000   14.4080000   25.7500000  
H 19.5780000   18.2720000   25.6890000  
H 19.1710000   20.9970000   21.6510000  
H 18.5990000   18.5070000   19.2080000  
C 19.4720000   20.3130000   23.8700000  
C 20.8480000   20.7340000   23.7880000  
C 21.3020000   21.9250000   24.3180000  
C 20.3660000   22.7380000   24.9810000  
C 19.0580000   22.2390000   25.2170000  
C 18.5070000   21.1130000   24.5320000  
C 21.9590000   20.1890000   23.0170000  
C 22.9890000   21.1350000   23.0680000  
N 22.6140000   22.2430000   23.8570000  
O 24.5360000   19.8230000   21.6900000  
C 24.3100000   20.9730000   22.3980000  
O 25.1930000   21.8260000   22.3780000  
O 18.1520000   23.0570000   25.8140000  
O 17.2020000   20.7460000   24.7370000  
H 21.9540000   19.2390000   22.5010000  
H 23.6640000   19.4530000   21.6710000  
H 23.1180000   23.0360000   24.0600000  
H 17.5060000   22.4790000   26.2190000  
H 16.9990000   19.9370000   24.2190000  
H 20.6020000   23.6910000   25.3720000  
