76
110 
C 21.5830000   10.8750000   20.1200000  
C 21.5790000    9.8640000   21.2620000  
C 20.7760000   10.0460000   22.3670000  
C 19.9550000   11.1960000   22.4570000  
C 19.8400000   12.1220000   21.4350000  
C 20.6120000   12.0210000   20.2580000  
C 20.7780000    9.4070000   23.6740000  
C 19.8420000   10.1380000   24.3870000  
N 19.4190000   11.2690000   23.6700000  
O 19.8500000    8.5920000   26.1940000  
C 19.4790000    9.8100000   25.8080000  
O 18.7280000   10.4420000   26.5320000  
O 20.5340000   12.9200000   19.2670000  
O 22.3770000   10.7660000   19.1640000  
H 22.2350000    9.0190000   21.1030000  
H 21.3550000    8.6140000   24.1020000  
H 20.3970000    8.2740000   25.4820000  
H 19.6480000   13.2440000   19.2680000  
C 18.9340000   13.2040000   21.5640000  
C 19.3610000   14.3440000   22.2520000  
C 18.5510000   15.4460000   22.3090000  
C 17.2380000   15.5070000   21.8480000  
C 16.7930000   14.3550000   21.1820000  
C 17.6220000   13.1680000   21.0590000  
C 20.6620000   14.6100000   22.8330000  
C 20.4900000   15.8180000   23.3990000  
N 19.1930000   16.3730000   23.0700000  
O 22.6390000   16.1640000   24.3320000  
C 21.4240000   16.6930000   24.1390000  
O 21.1830000   17.8290000   24.4940000  
O 15.5320000   14.2250000   20.6630000  
O 17.0910000   12.0730000   20.3810000  
H 21.4930000   13.9160000   22.9910000  
H 22.6140000   15.3120000   23.9280000  
H 18.8170000   17.2430000   23.3210000  
H 14.9370000   14.5870000   21.3150000  
H 16.4560000   12.3600000   19.6930000  
C 16.4800000   16.7870000   21.8560000  
C 16.8650000   17.8670000   21.0340000  
C 16.1910000   19.0040000   21.1340000  
C 15.0230000   19.2590000   21.8880000  
C 14.5260000   18.0880000   22.5080000  
C 15.2590000   16.8610000   22.6400000  
C 18.0100000   18.0580000   20.1940000  
C 17.9100000   19.4260000   19.8540000  
N 16.7500000   20.0080000   20.4160000  
O 19.9910000   19.2710000   18.5110000  
C 18.9080000   20.1140000   18.9630000  
O 18.8360000   21.2990000   18.5660000  
O 13.2670000   18.1840000   22.9880000  
O 14.8710000   15.8200000   23.4140000  
H 18.7340000   17.2370000   19.9450000  
H 19.8770000   18.3420000   18.6940000  
H 16.4550000   20.9740000   20.4070000  
H 13.2660000   19.0720000   23.3660000  
H 14.0910000   16.0840000   23.9070000  
C 14.3940000   20.6010000   21.9170000  
C 13.4210000   21.0090000   20.9690000  
C 12.7820000   22.1880000   21.0640000  
C 12.9810000   23.1600000   22.0660000  
C 13.9280000   22.8040000   23.0300000  
C 14.6080000   21.5490000   22.9230000  
C 12.9600000   20.2620000   19.8760000  
C 11.9550000   21.0860000   19.2510000  
N 11.8570000   22.2580000   20.0490000  
O 11.4810000   19.5850000   17.5010000  
C 11.1110000   20.7570000   18.0950000  
O 10.2010000   21.4570000   17.7240000  
O 14.0950000   23.5910000   24.1530000  
O 15.6590000   21.3580000   23.8080000  
H 13.2960000   19.2300000   19.5450000  
H 12.1490000   19.1630000   18.0960000  
H 11.1150000   22.9100000   20.1000000  
H 14.9610000   23.3200000   24.5000000  
H 16.3010000   20.6270000   23.5110000  
H 12.4830000   24.1180000   22.1100000  
