76
110 
C  9.9690000   17.6400000   21.4940000  
C  9.3110000   16.4740000   21.9720000  
C 10.0810000   15.4280000   22.4830000  
C 11.4670000   15.4090000   22.5520000  
C 12.1610000   16.5710000   22.1700000  
C 11.5030000   17.5750000   21.5070000  
C  9.5640000   14.2200000   23.0750000  
C 10.7280000   13.5660000   23.4640000  
N 11.8610000   14.3360000   23.2430000  
O  9.6610000   11.4860000   23.8790000  
C 10.7810000   12.1990000   24.0130000  
O 11.7610000   11.6870000   24.5010000  
O 12.1370000   18.6770000   20.9180000  
O  9.3050000   18.6350000   21.2100000  
H  8.1910000   16.3430000   21.9340000  
H  8.4850000   14.0430000   23.1250000  
H  8.9880000   12.1480000   23.5660000  
H 13.0940000   18.5910000   21.0150000  
C 13.5970000   16.5870000   22.2920000  
C 14.2240000   16.1160000   21.1650000  
C 15.5560000   16.1260000   21.1580000  
C 16.4190000   16.6030000   22.1830000  
C 15.7430000   17.1090000   23.3360000  
C 14.3220000   17.0970000   23.4160000  
C 13.7840000   15.6540000   19.8320000  
C 14.9670000   15.4800000   19.0720000  
N 15.9860000   15.5730000   19.9670000  
O 13.7740000   14.6860000   17.2480000  
C 15.0240000   14.8790000   17.7230000  
O 16.0410000   14.5890000   17.0660000  
O 16.4340000   17.4030000   24.4480000  
O 13.6670000   17.6280000   24.4910000  
H 12.8050000   15.4590000   19.4900000  
H 13.1210000   15.1630000   17.8630000  
H 16.9430000   15.4200000   19.6570000  
H 15.7380000   17.7260000   25.1080000  
H 12.8090000   17.2050000   24.4680000  
C 17.9120000   16.4400000   22.1350000  
C 18.6620000   17.1160000   21.1480000  
C 20.0560000   17.0210000   21.1790000  
C 20.7850000   16.1610000   22.0050000  
C 20.0510000   15.4090000   22.9560000  
C 18.6640000   15.5890000   23.0310000  
C 18.3770000   18.1260000   20.2150000  
C 19.5350000   18.4230000   19.5640000  
N 20.5960000   17.8200000   20.2050000  
O 18.5140000   19.6110000   17.7980000  
C 19.7170000   19.1550000   18.2590000  
O 20.7490000   19.3150000   17.6950000  
O 20.6930000   14.6010000   23.8950000  
O 17.9690000   14.9080000   23.9720000  
H 17.3670000   18.5190000   19.9650000  
H 17.9000000   19.3400000   18.4970000  
H 21.5580000   17.7660000   19.9720000  
H 20.0110000   14.1150000   24.4060000  
H 17.2870000   15.5030000   24.2230000  
C 22.2680000   16.0730000   21.8630000  
C 23.0420000   17.1600000   22.3070000  
C 24.4380000   17.2210000   22.1650000  
C 25.1860000   16.1080000   21.7760000  
C 24.4570000   14.9740000   21.4370000  
C 23.0120000   14.9320000   21.4180000  
C 22.7000000   18.4240000   22.9390000  
C 23.8250000   19.1470000   23.0520000  
N 24.9220000   18.4130000   22.6370000  
O 22.8130000   21.1540000   24.1040000  
C 23.9250000   20.5770000   23.5620000  
O 24.9590000   21.2070000   23.4730000  
O 25.1240000   13.7530000   21.2590000  
O 22.2800000   13.8520000   20.9750000  
H 21.6990000   18.8390000   23.2330000  
H 22.0530000   20.6070000   23.8720000  
H 25.8680000   18.7350000   22.4730000  
H 24.4890000   13.2540000   20.7640000  
H 21.3810000   14.1960000   20.7220000  
H 26.2750000   16.1530000   21.6690000  
