76
110 
C 14.6910000   16.6020000   28.7930000  
C 13.2650000   17.0900000   28.7640000  
C 12.7430000   17.3820000   27.5120000  
C 13.3180000   17.0910000   26.2670000  
C 14.6320000   16.5210000   26.2830000  
C 15.3050000   16.4110000   27.4620000  
C 11.4310000   17.6720000   27.1660000  
C 11.3200000   17.6450000   25.7810000  
N 12.5590000   17.2380000   25.2260000  
O  8.9120000   18.0850000   25.7620000  
C 10.0650000   17.8860000   25.0010000  
O  9.9460000   17.8310000   23.7900000  
O 16.5520000   15.9410000   27.4580000  
O 15.2550000   16.3330000   29.8490000  
H 12.7170000   17.0860000   29.6850000  
H 10.6450000   17.8500000   27.8620000  
H  9.1870000   18.1300000   26.7250000  
H 16.6660000   15.4400000   26.6110000  
C 15.2850000   16.3820000   24.9950000  
C 15.8530000   17.5030000   24.3610000  
C 16.6430000   17.2590000   23.2840000  
C 16.8130000   16.0950000   22.5760000  
C 16.2580000   14.9490000   23.2550000  
C 15.5540000   15.1380000   24.4890000  
C 15.8070000   18.8960000   24.6200000  
C 16.4730000   19.4660000   23.5200000  
N 17.0480000   18.4710000   22.7490000  
O 16.3140000   21.5960000   24.5190000  
C 16.5870000   20.8980000   23.3200000  
O 17.0870000   21.4170000   22.3470000  
O 16.4540000   13.6990000   22.6970000  
O 15.1820000   13.9660000   25.1280000  
H 15.1760000   19.4770000   25.3160000  
H 15.9050000   21.0260000   25.1290000  
H 17.7030000   18.6540000   21.9990000  
H 15.8890000   13.0400000   23.1770000  
H 14.6360000   14.2800000   25.8980000  
C 17.4640000   15.9180000   21.2190000  
C 18.7380000   16.4670000   20.8730000  
C 19.2060000   16.3470000   19.5950000  
C 18.5030000   15.8850000   18.4840000  
C 17.3040000   15.2870000   18.8400000  
C 16.7360000   15.2800000   20.1610000  
C 19.7760000   17.1620000   21.6120000  
C 20.7980000   17.3110000   20.7230000  
N 20.4260000   16.8580000   19.4630000  
O 22.3090000   18.4770000   22.2040000  
C 22.1510000   17.9400000   20.9650000  
O 23.0090000   18.0770000   20.1610000  
O 16.4870000   14.7980000   17.8950000  
O 15.4790000   14.7320000   20.2900000  
H 19.7450000   17.3680000   22.6670000  
H 21.4040000   18.3230000   22.6960000  
H 20.9800000   16.8560000   18.6190000  
H 15.7750000   14.4460000   18.5150000  
H 15.4110000   14.3280000   21.2130000  
C 19.2160000   15.7700000   17.1540000  
C 20.3620000   14.9790000   16.9220000  
C 20.9520000   14.8970000   15.6840000  
C 20.4440000   15.6340000   14.6320000  
C 19.1960000   16.3430000   14.8060000  
C 18.6410000   16.5070000   16.0730000  
C 21.0500000   14.0850000   17.7600000  
C 22.0440000   13.5080000   16.9900000  
N 21.9830000   14.0060000   15.6960000  
O 22.8660000   11.9310000   18.4870000  
C 23.0630000   12.4590000   17.3410000  
O 23.9520000   12.0730000   16.6170000  
O 18.6070000   16.9100000   13.7000000  
O 17.4350000   17.2100000   16.2210000  
H 21.0110000   13.9810000   18.8790000  
H 21.9860000   12.3240000   18.6920000  
H 22.6160000   13.8390000   14.9080000  
H 17.7110000   17.1880000   14.0520000  
H 17.0940000   17.1990000   17.1700000  
H 20.7740000   15.5600000   13.6180000  
