76
110 
C 15.1140000   19.5980000   28.2630000  
C 14.4910000   18.6120000   29.0610000  
C 14.3870000   17.2870000   28.6350000  
C 14.7250000   16.8740000   27.3380000  
C 15.2290000   17.8080000   26.4430000  
C 15.5380000   19.0990000   26.9050000  
C 13.7170000   16.1960000   29.1040000  
C 13.8690000   15.1770000   28.1920000  
N 14.4840000   15.5780000   27.0420000  
O 12.9090000   13.3880000   29.4960000  
C 13.3380000   13.7880000   28.3330000  
O 13.2860000   13.0160000   27.3990000  
O 16.2960000   20.0300000   26.2530000  
O 15.2010000   20.7710000   28.5840000  
H 14.1340000   18.9580000   30.0190000  
H 13.1160000   16.0540000   30.0040000  
H 13.1360000   14.1540000   29.9850000  
H 16.6510000   19.5260000   25.5220000  
C 15.9040000   17.3320000   25.2070000  
C 15.3720000   17.5690000   23.9620000  
C 16.0940000   17.1830000   22.8490000  
C 17.3640000   16.5600000   22.8420000  
C 17.8250000   16.2320000   24.1040000  
C 17.1850000   16.6630000   25.2430000  
C 14.2770000   18.3070000   23.4580000  
C 14.4060000   18.4350000   22.1050000  
N 15.4610000   17.5850000   21.6650000  
O 12.6650000   19.9610000   21.9900000  
C 13.5080000   19.1790000   21.2780000  
O 13.4470000   19.1890000   20.0250000  
O 18.9680000   15.5510000   24.2310000  
O 17.8920000   16.4300000   26.4020000  
H 13.4350000   18.6860000   24.1240000  
H 12.9690000   19.8540000   22.9330000  
H 15.8290000   17.4820000   20.6690000  
H 19.1070000   15.5200000   25.2200000  
H 17.4380000   16.5900000   27.2520000  
C 17.8560000   16.0340000   21.4980000  
C 18.2950000   16.9120000   20.4400000  
C 18.5550000   16.4440000   19.1660000  
C 18.4930000   15.0890000   18.8200000  
C 18.1090000   14.1520000   19.8110000  
C 17.8150000   14.6680000   21.1160000  
C 18.3540000   18.3610000   20.3790000  
C 18.7100000   18.6990000   19.0690000  
N 18.8670000   17.4610000   18.3700000  
O 18.7260000   21.1730000   19.2180000  
C 18.9150000   20.0530000   18.4370000  
O 19.1410000   20.0810000   17.2440000  
O 18.1640000   12.8160000   19.5180000  
O 17.4680000   13.6730000   21.9950000  
H 18.1340000   19.1410000   21.1740000  
H 18.6130000   20.9140000   20.1990000  
H 19.3570000   17.2950000   17.4790000  
H 18.4710000   12.7210000   18.6020000  
H 17.7390000   13.8910000   22.8870000  
C 18.7150000   14.6980000   17.3890000  
C 20.0190000   14.7860000   16.8040000  
C 20.2950000   14.2540000   15.5610000  
C 19.2900000   13.6600000   14.8280000  
C 18.0080000   13.6630000   15.3220000  
C 17.7820000   14.1130000   16.6000000  
C 21.2760000   15.2130000   17.3350000  
C 22.2140000   14.9940000   16.3050000  
N 21.6200000   14.3040000   15.2100000  
O 24.1020000   15.9090000   17.5230000  
C 23.6930000   15.3640000   16.3470000  
O 24.4370000   15.1680000   15.4310000  
O 17.0230000   13.0600000   14.5420000  
O 16.4600000   14.0030000   17.0450000  
H 21.4610000   15.6200000   18.3480000  
H 23.4540000   15.5190000   18.1310000  
H 22.1020000   13.9670000   14.3780000  
H 16.1630000   13.2290000   14.9340000  
H 16.3940000   14.3220000   17.9420000  
H 19.5250000   13.1180000   13.9240000  
