76
110 
C 18.1950000   18.0460000   28.8020000  
C 17.3150000   17.2480000   29.6420000  
C 16.4740000   16.3660000   29.0230000  
C 16.2600000   16.1550000   27.6690000  
C 17.0530000   16.9420000   26.7940000  
C 18.0260000   17.7540000   27.3740000  
C 15.4560000   15.6180000   29.6830000  
C 14.7560000   14.9630000   28.6490000  
N 15.2520000   15.3480000   27.3850000  
O 13.1370000   14.1290000   30.1160000  
C 13.5570000   14.2020000   28.8430000  
O 12.9420000   13.6940000   27.9040000  
O 18.7490000   18.5050000   26.5330000  
O 19.0040000   18.8540000   29.2460000  
H 17.3620000   17.3490000   30.7580000  
H 15.2280000   15.5530000   30.7490000  
H 13.9070000   14.5290000   30.5800000  
H 18.5950000   18.1980000   25.5940000  
C 16.9970000   16.6460000   25.3420000  
C 16.8030000   17.7010000   24.4430000  
C 16.9120000   17.5680000   23.1140000  
C 16.9290000   16.2800000   22.5080000  
C 17.1490000   15.1730000   23.3880000  
C 17.2440000   15.3560000   24.8200000  
C 16.4570000   19.0970000   24.7030000  
C 16.3100000   19.7240000   23.4420000  
N 16.6870000   18.7510000   22.5190000  
O 15.5750000   21.8500000   24.1110000  
C 15.8900000   21.0790000   23.0910000  
O 15.7140000   21.4180000   21.9410000  
O 17.6030000   13.9480000   22.9060000  
O 17.5880000   14.3730000   25.7040000  
H 16.3210000   19.5920000   25.7450000  
H 15.6050000   21.3150000   24.8830000  
H 16.3830000   18.9020000   21.5890000  
H 17.2460000   13.2780000   23.5120000  
H 17.3300000   14.6810000   26.5620000  
C 16.8730000   16.2400000   21.0470000  
C 17.8530000   16.8710000   20.2020000  
C 17.8080000   16.7110000   18.8080000  
C 16.8680000   15.8350000   18.2050000  
C 15.8680000   15.1830000   19.0120000  
C 15.9220000   15.3430000   20.3990000  
C 19.0260000   17.6700000   20.5150000  
C 19.5950000   17.9930000   19.2800000  
N 18.8190000   17.4160000   18.2150000  
O 21.4060000   19.2160000   20.2460000  
C 20.8450000   18.7460000   19.0810000  
O 21.3470000   18.8930000   17.9690000  
O 14.9530000   14.3330000   18.4280000  
O 15.0540000   14.7340000   21.2420000  
H 19.3700000   17.9390000   21.5270000  
H 20.7790000   19.1450000   21.0130000  
H 18.9920000   17.4430000   17.2050000  
H 15.4230000   14.0710000   17.6340000  
H 15.2470000   15.0400000   22.1620000  
C 16.8400000   15.6650000   16.7290000  
C 17.9660000   15.1630000   16.0230000  
C 17.9090000   14.9770000   14.6640000  
C 16.7510000   15.3010000   13.8820000  
C 15.6490000   15.8250000   14.5740000  
C 15.6510000   16.0020000   16.0300000  
C 19.1850000   14.6490000   16.5480000  
C 19.9480000   14.2550000   15.4410000  
N 19.1200000   14.3580000   14.2890000  
O 21.9680000   13.8250000   16.6820000  
C 21.3750000   13.7970000   15.4840000  
O 21.9890000   13.4800000   14.4770000  
O 14.5640000   16.0380000   13.7660000  
O 14.5890000   16.7070000   16.5570000  
H 19.4630000   14.5090000   17.5630000  
H 21.2810000   14.0410000   17.3820000  
H 19.3960000   13.9160000   13.3900000  
H 13.9120000   16.4580000   14.3630000  
H 14.7230000   16.9080000   17.5350000  
H 16.7140000   14.9160000   12.9140000  
