76
110 
C 20.5590000   15.1140000   28.2600000  
C 19.5020000   14.5800000   29.1340000  
C 18.1990000   14.6680000   28.7430000  
C 17.8090000   15.3070000   27.5100000  
C 18.8400000   15.6380000   26.5470000  
C 20.1530000   15.6030000   26.9160000  
C 17.0900000   14.1900000   29.4010000  
C 16.0580000   14.6130000   28.5960000  
N 16.5160000   15.3290000   27.4460000  
O 14.3310000   13.7500000   30.0950000  
C 14.6330000   14.3720000   28.9340000  
O 13.6670000   14.7310000   28.3540000  
O 21.1490000   15.6610000   26.0330000  
O 21.6900000   15.0510000   28.6710000  
H 19.8370000   14.2430000   30.1220000  
H 16.9790000   13.6210000   30.2970000  
H 15.1950000   13.4900000   30.4460000  
H 20.7590000   16.0950000   25.2610000  
C 18.4230000   15.7990000   25.2090000  
C 18.8310000   16.9220000   24.4660000  
C 18.5160000   17.0590000   23.1310000  
C 17.7930000   16.1170000   22.3340000  
C 17.4680000   14.9460000   23.1400000  
C 17.7840000   14.7720000   24.5090000  
C 19.2690000   18.2430000   24.8810000  
C 19.2340000   19.1130000   23.8240000  
N 18.6980000   18.3670000   22.7040000  
O 20.3340000   20.8920000   24.9460000  
C 19.8920000   20.4000000   23.7250000  
O 19.9140000   21.0540000   22.7240000  
O 16.9430000   13.8870000   22.5120000  
O 17.5160000   13.6130000   25.1200000  
H 19.6390000   18.4080000   25.9080000  
H 20.0040000   20.2550000   25.5920000  
H 18.7090000   18.6480000   21.7590000  
H 16.7290000   13.2550000   23.2710000  
H 18.0010000   13.5730000   25.9910000  
C 17.2210000   16.3560000   21.0560000  
C 18.0350000   16.5020000   19.9150000  
C 17.4890000   16.9220000   18.7130000  
C 16.1460000   17.3540000   18.5290000  
C 15.3490000   17.2850000   19.6720000  
C 15.8800000   16.7850000   20.9430000  
C 19.4560000   16.6110000   19.7220000  
C 19.6390000   16.8920000   18.3560000  
N 18.4540000   17.1020000   17.7440000  
O 22.1050000   16.6520000   18.2590000  
C 20.9500000   16.7880000   17.5790000  
O 20.9840000   17.0250000   16.3910000  
O 14.0450000   17.6430000   19.6900000  
O 15.0110000   16.4970000   21.9950000  
H 20.2200000   16.3120000   20.3840000  
H 21.7790000   16.4650000   19.1190000  
H 18.3170000   17.2310000   16.7260000  
H 13.7740000   18.1310000   18.8820000  
H 15.4670000   15.9920000   22.6900000  
C 15.6220000   17.8020000   17.1530000  
C 14.7930000   16.9390000   16.4270000  
C 14.4000000   17.1560000   15.1450000  
C 15.0070000   18.1780000   14.3910000  
C 15.8500000   19.0920000   15.0720000  
C 16.1860000   18.8960000   16.4010000  
C 14.2280000   15.7580000   16.9480000  
C 13.4550000   15.2860000   15.8690000  
N 13.5160000   16.2020000   14.8370000  
O 12.8110000   13.2810000   16.9500000  
C 12.7560000   14.0130000   15.7700000  
O 12.2290000   13.5230000   14.7880000  
O 16.5740000   19.9620000   14.2930000  
O 17.0160000   19.7630000   17.0350000  
H 14.4860000   15.2510000   17.8470000  
H 12.8770000   14.0160000   17.5610000  
H 13.0560000   16.0860000   13.9050000  
H 17.4380000   20.1420000   14.7620000  
H 17.1560000   19.3670000   17.8750000  
H 14.8070000   18.4170000   13.3510000  
