76
110 
C 18.4760000    9.2680000   22.0920000  
C 19.3250000    8.9370000   20.9570000  
C 19.8560000    9.8760000   20.1510000  
C 19.5870000   11.2190000   20.2060000  
C 18.7460000   11.6870000   21.2340000  
C 18.1650000   10.7680000   22.0860000  
C 20.7210000    9.6720000   19.0750000  
C 20.9400000   10.9090000   18.5700000  
N 20.2170000   11.9310000   19.2690000  
O 22.3280000   10.1900000   16.7080000  
C 21.7920000   11.2550000   17.4060000  
O 21.9380000   12.3950000   17.0300000  
O 17.3090000   11.0670000   23.0370000  
O 18.0690000    8.4550000   22.9040000  
H 19.5000000    7.9260000   20.8110000  
H 21.2620000    8.8250000   18.7390000  
H 22.1500000    9.5430000   17.3820000  
H 17.2810000   12.0220000   22.9060000  
C 18.3840000   13.0590000   21.3190000  
C 17.0290000   13.3270000   21.0260000  
C 16.6020000   14.6090000   21.0850000  
C 17.4520000   15.7370000   21.3170000  
C 18.7780000   15.4070000   21.7370000  
C 19.2380000   14.0840000   21.7760000  
C 15.8320000   12.5480000   20.7260000  
C 14.8050000   13.4060000   20.8070000  
N 15.2180000   14.7430000   20.9340000  
O 13.2220000   11.6510000   20.4800000  
C 13.4260000   12.9410000   20.8330000  
O 12.5100000   13.6150000   21.2770000  
O 19.5340000   16.4420000   22.1030000  
O 20.5420000   13.8170000   22.1000000  
H 15.8030000   11.4510000   20.5860000  
H 14.0920000   11.2260000   20.2450000  
H 14.6450000   15.6090000   20.8090000  
H 20.4970000   16.3950000   22.0210000  
H 20.5940000   12.8670000   22.1680000  
C 16.8260000   17.1190000   21.4770000  
C 16.7320000   17.6750000   22.7850000  
C 16.2900000   18.9260000   22.9900000  
C 15.8110000   19.8350000   21.9770000  
C 15.7340000   19.2410000   20.6870000  
C 16.2410000   17.9210000   20.4220000  
C 17.1640000   17.1320000   24.0250000  
C 16.8760000   18.1620000   24.9660000  
N 16.4490000   19.2930000   24.3020000  
O 17.1560000   16.7660000   26.9690000  
C 16.9570000   17.9850000   26.4490000  
O 16.7960000   18.9100000   27.1720000  
O 15.3400000   20.0020000   19.6870000  
O 16.2480000   17.4200000   19.1260000  
H 17.4310000   16.0740000   24.2980000  
H 17.4220000   16.2320000   26.1600000  
H 16.2370000   20.2700000   24.6440000  
H 15.1470000   20.9170000   20.0630000  
H 16.8630000   16.6310000   19.2250000  
C 15.2700000   21.1700000   22.2960000  
C 16.1200000   22.3040000   22.2070000  
C 15.6950000   23.5030000   22.7070000  
C 14.3820000   23.7690000   22.9650000  
C 13.5060000   22.7380000   22.8620000  
C 13.9130000   21.3910000   22.4830000  
C 17.5550000   22.4040000   21.8930000  
C 17.8950000   23.7400000   22.2720000  
N 16.7130000   24.4070000   22.6890000  
O 20.3200000   23.4260000   22.1210000  
C 19.2730000   24.3120000   22.3150000  
O 19.4950000   25.4490000   22.5830000  
O 12.1680000   22.9560000   23.0430000  
O 13.0640000   20.3150000   22.4440000  
H 18.2530000   21.6030000   21.6330000  
H 20.0690000   22.5340000   21.7890000  
H 16.6230000   25.4020000   22.9510000  
H 11.7560000   22.0740000   23.1120000  
H 13.6280000   19.5700000   22.5630000  
H 14.0770000   24.7850000   23.2070000  
