76
110 
C 10.0960000   16.3270000   23.5180000  
C  9.7530000   17.4880000   24.3880000  
C 10.7690000   18.3130000   24.8520000  
C 12.0950000   18.2330000   24.4330000  
C 12.4240000   17.2950000   23.3840000  
C 11.4530000   16.3870000   22.9940000  
C 10.7220000   19.4060000   25.7110000  
C 12.0170000   19.9760000   25.6420000  
N 12.9100000   19.2070000   24.9360000  
O 11.6010000   21.8560000   27.0620000  
C 12.5200000   21.2110000   26.2580000  
O 13.6470000   21.6880000   26.0480000  
O 11.7130000   15.3620000   22.1690000  
O  9.2270000   15.5120000   23.1470000  
H  8.7750000   17.5080000   24.7990000  
H  9.8930000   19.7470000   26.3370000  
H 10.8150000   21.3010000   26.9850000  
H 12.7050000   15.3690000   22.2170000  
C 13.7600000   17.1880000   22.9230000  
C 14.5570000   16.1450000   23.3440000  
C 15.8230000   15.9930000   22.8380000  
C 16.4630000   16.9460000   22.0020000  
C 15.7140000   18.0750000   21.6540000  
C 14.3250000   18.1280000   22.0400000  
C 14.3850000   14.9800000   24.1740000  
C 15.5290000   14.2210000   24.2320000  
N 16.4650000   14.9040000   23.4070000  
O 14.6640000   12.2810000   25.2150000  
C 15.7890000   12.9200000   24.9680000  
O 16.8630000   12.4040000   25.1830000  
O 16.1820000   19.1400000   20.8880000  
O 13.5330000   19.1940000   21.6130000  
H 13.5140000   14.8700000   24.7240000  
H 13.9450000   12.8540000   25.0750000  
H 17.4650000   14.6220000   23.3910000  
H 15.5190000   19.7970000   20.6550000  
H 12.6560000   19.0910000   21.8630000  
C 17.8280000   16.7640000   21.4530000  
C 18.1800000   15.8490000   20.4810000  
C 19.4930000   15.6720000   20.1590000  
C 20.6160000   16.3580000   20.6540000  
C 20.2790000   17.2570000   21.7560000  
C 18.8810000   17.5200000   22.0460000  
C 17.4600000   14.8700000   19.7590000  
C 18.3760000   14.2540000   18.9710000  
N 19.6350000   14.7810000   19.1660000  
O 16.6990000   12.7140000   18.0600000  
C 17.9930000   13.1380000   18.0560000  
O 18.8330000   12.6640000   17.3180000  
O 21.2020000   17.7840000   22.5640000  
O 18.5250000   18.4200000   22.9980000  
H 16.5010000   14.6310000   19.9110000  
H 16.3010000   13.1940000   18.7590000  
H 20.5120000   14.3680000   18.8360000  
H 22.0830000   17.3850000   22.4530000  
H 19.3600000   18.7760000   23.3780000  
C 22.0580000   15.8710000   20.4280000  
C 22.8110000   16.3970000   19.3670000  
C 23.9620000   15.7880000   19.0120000  
C 24.5060000   14.7400000   19.7700000  
C 23.7290000   14.1620000   20.7950000  
C 22.5040000   14.7070000   21.1040000  
C 22.4970000   17.4000000   18.3480000  
C 23.5020000   17.2970000   17.4270000  
N 24.4400000   16.4120000   17.9060000  
O 22.4240000   18.5920000   15.7040000  
C 23.4510000   17.8160000   16.0230000  
O 24.2710000   17.5010000   15.2180000  
O 24.1930000   13.0950000   21.4980000  
O 21.6910000   14.1150000   22.0870000  
H 21.5410000   17.8790000   18.1030000  
H 21.9470000   18.5660000   16.5340000  
H 25.2670000   16.0600000   17.3750000  
H 23.5500000   12.7360000   22.1670000  
H 20.7540000   14.1540000   21.8380000  
H 25.5090000   14.3060000   19.5370000  
