76
110 
C 17.3110000   10.6800000   16.8820000  
C 16.0010000   10.0880000   16.8890000  
C 15.0270000   10.7650000   17.5910000  
C 15.1970000   11.9310000   18.3270000  
C 16.4670000   12.5920000   18.3250000  
C 17.4890000   11.9530000   17.6670000  
C 13.6820000   10.4180000   17.7290000  
C 13.1520000   11.3320000   18.5660000  
N 14.0700000   12.2820000   18.9220000  
O 11.0140000   10.4170000   18.4050000  
C 11.7370000   11.4190000   18.9310000  
O 11.2760000   12.2670000   19.7100000  
O 18.7530000   12.4360000   17.6290000  
O 18.2540000   10.1100000   16.3280000  
H 15.7900000    9.1200000   16.5140000  
H 13.2640000    9.5260000   17.2620000  
H 11.6590000   10.0070000   17.7560000  
H 18.8470000   13.1310000   18.3140000  
C 16.6480000   13.7920000   19.0970000  
C 16.4550000   13.7800000   20.4890000  
C 16.7140000   14.8720000   21.1880000  
C 17.0730000   16.1250000   20.7050000  
C 17.2530000   16.1740000   19.3160000  
C 17.0470000   14.9960000   18.5090000  
C 16.2310000   12.7520000   21.5410000  
C 16.3810000   13.3430000   22.7850000  
N 16.7150000   14.6770000   22.5790000  
O 16.0270000   11.4730000   24.2160000  
C 16.1790000   12.8310000   24.2040000  
O 16.2570000   13.5320000   25.1960000  
O 17.7950000   17.2740000   18.7010000  
O 17.0620000   15.1100000   17.1880000  
H 16.0350000   11.7160000   21.3510000  
H 16.1980000   11.2450000   23.3230000  
H 16.6930000   15.3200000   23.2950000  
H 17.8910000   17.2000000   17.7210000  
H 16.7900000   14.2620000   16.8090000  
C 17.1750000   17.2620000   21.6950000  
C 18.3100000   17.2830000   22.5440000  
C 18.5470000   18.4520000   23.2870000  
C 17.6740000   19.5700000   23.3590000  
C 16.5370000   19.5430000   22.4920000  
C 16.2660000   18.3650000   21.6460000  
C 19.3600000   16.4100000   22.9460000  
C 20.0700000   17.0310000   23.9830000  
N 19.5980000   18.3440000   24.1330000  
O 21.2280000   15.1220000   24.5310000  
C 20.8830000   16.3450000   24.9490000  
O 21.3660000   16.8370000   25.9700000  
O 15.5130000   20.4310000   22.7460000  
O 15.1380000   18.2940000   20.8270000  
H 19.4700000   15.4120000   22.6530000  
H 21.1140000   15.1330000   23.5070000  
H 19.8780000   18.9550000   24.8620000  
H 14.8200000   20.4230000   22.0370000  
H 15.0560000   17.3940000   20.4910000  
C 17.7770000   20.6950000   24.3240000  
C 18.7470000   21.7250000   24.1670000  
C 18.8770000   22.7500000   25.0540000  
C 18.0690000   22.8680000   26.2020000  
C 17.0760000   21.9160000   26.3720000  
C 16.8210000   20.8930000   25.4150000  
C 19.6820000   21.8360000   23.1130000  
C 20.3960000   23.0020000   23.4280000  
N 19.9600000   23.4960000   24.6410000  
O 21.9470000   23.0740000   21.6040000  
C 21.4970000   23.6860000   22.6640000  
O 21.9820000   24.7520000   22.9500000  
O 16.2660000   22.0480000   27.4090000  
O 15.7530000   20.0300000   25.6310000  
H 19.7580000   21.3130000   22.1780000  
H 21.6260000   22.1780000   21.6750000  
H 20.3410000   24.4150000   24.9450000  
H 15.5400000   21.4230000   27.2300000  
H 15.4820000   19.4970000   24.8400000  
H 18.1980000   23.7320000   26.8760000  
