76
110 
C 12.1720000   19.8670000   25.8520000  
C 11.9640000   19.0700000   27.1030000  
C 12.6270000   17.8610000   27.2560000  
C 13.6950000   17.4670000   26.4300000  
C 14.0400000   18.2680000   25.3000000  
C 13.2860000   19.4100000   24.9920000  
C 12.5970000   16.9460000   28.2960000  
C 13.6940000   16.0650000   28.1120000  
N 14.2880000   16.3940000   26.9100000  
O 13.0650000   14.4010000   29.8140000  
C 13.9480000   14.8020000   28.8210000  
O 14.7620000   14.0260000   28.4270000  
O 13.5120000   20.2250000   24.0200000  
O 11.4690000   20.8710000   25.6460000  
H 11.2400000   19.4080000   27.8100000  
H 11.9390000   17.0520000   29.0880000  
H 12.5440000   15.1900000   29.9350000  
H 14.2990000   19.8800000   23.6060000  
C 15.0240000   17.8500000   24.3410000  
C 14.6360000   17.0020000   23.3490000  
C 15.6390000   16.4890000   22.5010000  
C 17.0160000   16.5790000   22.6720000  
C 17.4060000   17.2630000   23.8560000  
C 16.3810000   17.8570000   24.6670000  
C 13.3670000   16.7240000   22.6790000  
C 13.7170000   16.1620000   21.4110000  
N 15.1210000   16.0950000   21.2970000  
O 11.5520000   16.1550000   20.7110000  
C 12.7590000   15.8860000   20.3330000  
O 13.0530000   15.6090000   19.1850000  
O 18.7530000   17.5340000   24.0410000  
O 16.7720000   18.6750000   25.6820000  
H 12.3420000   16.8600000   23.1080000  
H 11.5570000   16.5050000   21.6240000  
H 15.5700000   15.7780000   20.4270000  
H 18.9120000   18.1020000   24.8160000  
H 16.0590000   18.6950000   26.3100000  
C 17.9210000   16.1240000   21.5780000  
C 17.8530000   16.5560000   20.2490000  
C 18.6310000   16.0790000   19.2080000  
C 19.5770000   15.1130000   19.4050000  
C 19.6740000   14.5610000   20.6990000  
C 18.8510000   14.9870000   21.7610000  
C 17.1140000   17.6100000   19.5460000  
C 17.4710000   17.6370000   18.1650000  
N 18.4940000   16.7290000   18.0020000  
O 16.1330000   19.5320000   17.6050000  
C 17.0460000   18.6170000   17.1600000  
O 17.5400000   18.6700000   16.0220000  
O 20.6330000   13.6510000   20.9510000  
O 18.8210000   14.3290000   22.9840000  
H 16.4660000   18.4300000   19.9560000  
H 15.9780000   19.2720000   18.4910000  
H 19.1240000   16.6600000   17.1750000  
H 21.0290000   13.4190000   20.1200000  
H 18.6370000   15.0780000   23.5880000  
C 20.4880000   14.5610000   18.3670000  
C 21.7400000   15.1510000   18.2230000  
C 22.6910000   14.6880000   17.3710000  
C 22.4100000   13.6920000   16.4520000  
C 21.1110000   13.2160000   16.4400000  
C 20.1070000   13.7220000   17.3490000  
C 22.3610000   16.1770000   18.9820000  
C 23.7020000   16.2320000   18.6310000  
N 23.9150000   15.3400000   17.6070000  
O 24.3410000   17.9580000   20.1330000  
C 24.7820000   17.1180000   19.1690000  
O 25.9500000   17.0420000   18.8190000  
O 20.6930000   12.2560000   15.5270000  
O 18.8510000   13.2000000   17.4100000  
H 21.8120000   16.7660000   19.7050000  
H 23.6170000   17.4910000   20.6130000  
H 24.7280000   15.2900000   17.0220000  
H 19.7120000   12.1330000   15.5930000  
H 18.4750000   13.3810000   18.2940000  
H 23.1520000   13.4040000   15.6370000  
