76
101 
C 10.5810000   17.9100000   22.2920000  
C 10.1520000   16.5070000   22.3040000  
C 11.0740000   15.4530000   22.2270000  
C 12.4530000   15.6970000   22.1230000  
C 12.9650000   17.0190000   22.1290000  
C 12.0620000   18.1140000   22.2410000  
C 10.9370000   14.0600000   22.3480000  
C 12.1880000   13.5270000   22.1500000  
N 13.1720000   14.5420000   22.1300000  
O 11.2320000   11.3770000   22.1790000  
C 12.4220000   12.0540000   21.9660000  
O 13.4940000   11.4720000   21.6940000  
O 12.4480000   19.3620000   22.4700000  
O  9.7360000   18.7980000   22.3270000  
H  9.0590000   16.3330000   22.3950000  
H 10.0020000   13.5560000   22.5250000  
H 10.4910000   12.0110000   22.0580000  
H 13.3940000   19.2980000   22.6370000  
C 14.4320000   17.2480000   22.2450000  
C 15.1190000   17.9560000   21.2150000  
C 16.4590000   17.9380000   21.0800000  
C 17.3370000   17.3710000   22.0670000  
C 16.6870000   16.6720000   23.1100000  
C 15.2760000   16.6220000   23.2350000  
C 14.5590000   18.5730000   20.0150000  
C 15.6660000   18.8820000   19.2500000  
N 16.8610000   18.5750000   19.9750000  
O 14.3850000   19.7150000   17.4670000  
C 15.6350000   19.4310000   17.9060000  
O 16.6020000   19.7040000   17.1940000  
O 17.4960000   16.3630000   24.1140000  
O 14.7180000   16.0220000   24.3680000  
H 13.5080000   18.4740000   19.7150000  
H 13.7210000   19.3800000   18.0650000  
H 17.7930000   18.5610000   19.4580000  
H 18.4420000   16.5640000   23.8630000  
H 13.7320000   16.1200000   24.3340000  
C 18.7900000   17.6260000   21.9110000  
C 19.3000000   18.9130000   21.8510000  
C 20.6590000   19.1010000   21.6350000  
C 21.5660000   18.1280000   21.3390000  
C 21.1000000   16.8060000   21.3990000  
C 19.7140000   16.5520000   21.7150000  
C 18.6970000   20.2240000   21.7780000  
C 19.7530000   21.1030000   21.5050000  
N 20.9670000   20.4270000   21.4230000  
O 18.3710000   23.0390000   21.2450000  
C 19.6150000   22.5340000   21.2300000  
O 20.6020000   23.2600000   21.0780000  
O 22.0550000   15.8290000   21.4940000  
O 19.3030000   15.2340000   21.7180000  
H 17.6610000   20.4790000   21.9390000  
H 17.7840000   22.4160000   21.6380000  
H 21.8560000   20.8590000   21.3180000  
H 21.4850000   15.0410000   21.5110000  
H 18.5170000   15.2650000   21.0790000  
C 22.9800000   18.4820000   21.2250000  
C 23.6420000   19.2540000   22.2040000  
C 24.9940000   19.6950000   22.0900000  
C 25.6950000   19.4780000   20.9090000  
C 25.0640000   18.7610000   19.8990000  
C 23.7450000   18.2100000   20.0800000  
C 23.2140000   19.8130000   23.4720000  
C 24.2320000   20.5280000   23.9980000  
N 25.3640000   20.4750000   23.1240000  
O 23.1270000   21.2260000   25.9670000  
C 24.2570000   21.3550000   25.1950000  
O 25.1360000   22.1920000   25.4650000  
O 25.7970000   18.5510000   18.7630000  
O 23.1780000   17.5430000   19.0220000  
H 22.1670000   19.7630000   23.7540000  
H 22.7130000   20.3730000   25.7140000  
H 26.2700000   20.8980000   23.2460000  
H 25.2510000   18.1190000   18.1240000  
H 22.3170000   17.2350000   19.1980000  
H 26.6910000   19.8900000   20.7110000  
