76
110 
C 19.5120000   10.3540000   18.7670000  
C 19.8020000    9.3330000   19.7580000  
C 19.5340000    9.5130000   21.0390000  
C 18.9600000   10.7000000   21.5330000  
C 18.6430000   11.7370000   20.7360000  
C 18.8960000   11.5680000   19.3770000  
C 19.7540000    8.6760000   22.1070000  
C 19.5380000    9.4580000   23.2110000  
N 19.0040000   10.7280000   22.8180000  
O 20.3390000    7.8000000   24.7420000  
C 19.9210000    9.0710000   24.5880000  
O 19.7760000    9.8170000   25.5520000  
O 18.7340000   12.5790000   18.4940000  
O 19.8690000   10.1830000   17.6520000  
H 20.1980000    8.3380000   19.4370000  
H 20.2200000    7.7490000   21.9030000  
H 20.3040000    7.4110000   23.8940000  
H 18.8420000   13.4340000   18.9780000  
C 18.2380000   13.0610000   21.2590000  
C 19.1700000   14.0650000   21.5890000  
C 18.6270000   15.3000000   21.8330000  
C 17.2630000   15.6920000   21.9330000  
C 16.3720000   14.5580000   21.8410000  
C 16.8760000   13.2670000   21.5030000  
C 20.5860000   14.1890000   21.7280000  
C 20.8240000   15.5060000   21.9810000  
N 19.6510000   16.2150000   21.9910000  
O 23.1600000   15.2080000   21.8850000  
C 22.2040000   16.1450000   21.9660000  
O 22.3680000   17.3360000   22.0970000  
O 15.0510000   14.7380000   21.6850000  
O 15.9160000   12.3000000   21.2840000  
H 21.2960000   13.4620000   21.5590000  
H 22.6970000   14.3510000   21.8430000  
H 19.4880000   17.2010000   22.2020000  
H 14.8540000   15.6580000   21.9120000  
H 15.1660000   12.8200000   20.9680000  
C 16.8420000   17.0350000   22.2060000  
C 17.0260000   17.9720000   21.1550000  
C 16.5490000   19.2260000   21.3400000  
C 15.9120000   19.7060000   22.5120000  
C 15.6140000   18.7620000   23.5480000  
C 16.0320000   17.4080000   23.2990000  
C 17.7270000   17.9500000   19.8660000  
C 17.5440000   19.2180000   19.2710000  
N 16.8650000   19.9930000   20.2590000  
O 18.3350000   18.6330000   17.1820000  
C 17.9140000   19.6860000   17.9430000  
O 17.8380000   20.8780000   17.5340000  
O 14.8230000   19.1190000   24.6210000  
O 15.8380000   16.4210000   24.3150000  
H 18.1870000   17.0240000   19.4430000  
H 18.6690000   17.9950000   17.8460000  
H 16.7160000   20.9800000   20.1450000  
H 14.3440000   19.9670000   24.4330000  
H 15.3040000   16.8710000   25.0300000  
C 15.5300000   21.1540000   22.5650000  
C 14.1440000   21.4900000   22.5700000  
C 13.7080000   22.7670000   22.6950000  
C 14.6200000   23.8750000   22.7420000  
C 15.9920000   23.5840000   22.7470000  
C 16.4710000   22.2240000   22.5700000  
C 12.9530000   20.6210000   22.5370000  
C 11.9020000   21.4850000   22.6120000  
N 12.3610000   22.8140000   22.6420000  
O 10.1980000   19.8940000   22.5940000  
C 10.4830000   21.2180000   22.4630000  
O  9.6230000   22.0060000   22.3990000  
O 16.8320000   24.6270000   22.9220000  
O 17.8310000   21.9580000   22.5080000  
H 12.9840000   19.5270000   22.3860000  
H 11.0510000   19.5380000   22.3400000  
H 11.7350000   23.6190000   22.5160000  
H 17.6850000   24.4290000   22.5960000  
H 17.9630000   21.0030000   22.2630000  
H 14.2670000   24.8950000   22.8910000  
