76
110 
C 10.2020000   18.2650000   22.6460000  
C  9.4570000   17.2090000   23.3560000  
C 10.0940000   16.0930000   23.8120000  
C 11.4310000   15.8050000   23.5320000  
C 12.2140000   16.7910000   22.8470000  
C 11.6170000   17.9720000   22.3500000  
C  9.6000000   14.9510000   24.5290000  
C 10.7160000   14.1160000   24.6760000  
N 11.8250000   14.6100000   23.9350000  
O  9.5940000   12.3300000   25.7930000  
C 10.7550000   12.7790000   25.3110000  
O 11.7320000   12.1160000   25.4590000  
O 12.3310000   18.9650000   21.6830000  
O  9.7300000   19.3400000   22.2770000  
H  8.3780000   17.3650000   23.3980000  
H  8.5550000   14.8030000   24.9220000  
H  8.9900000   12.9910000   25.4790000  
H 13.3150000   18.7100000   21.8280000  
C 13.6500000   16.5330000   22.5360000  
C 14.0850000   16.3500000   21.2370000  
C 15.4520000   16.1580000   21.0210000  
C 16.4530000   16.2110000   22.0360000  
C 16.0070000   16.4710000   23.3310000  
C 14.5860000   16.5690000   23.6380000  
C 13.5630000   16.4160000   19.9050000  
C 14.6010000   16.2980000   18.9960000  
N 15.7690000   16.2170000   19.6970000  
O 13.3290000   16.5410000   16.9570000  
C 14.5400000   16.2010000   17.5100000  
O 15.5160000   15.7680000   16.8330000  
O 16.9070000   16.4480000   24.3330000  
O 14.1310000   16.6600000   24.9010000  
H 12.5560000   16.4950000   19.6980000  
H 12.6960000   16.4020000   17.7370000  
H 16.7180000   16.2120000   19.3060000  
H 16.3850000   16.2120000   25.1700000  
H 13.1900000   16.8980000   24.8540000  
C 17.8810000   15.9210000   21.7210000  
C 18.6140000   16.9900000   21.1110000  
C 19.8960000   16.8140000   20.8400000  
C 20.6450000   15.6860000   21.0570000  
C 19.9170000   14.5970000   21.6010000  
C 18.5670000   14.7120000   21.9080000  
C 18.2700000   18.3280000   20.6500000  
C 19.4830000   18.9130000   20.2240000  
N 20.5000000   17.9510000   20.2560000  
O 18.6490000   21.1990000   20.2800000  
C 19.6910000   20.3870000   19.9990000  
O 20.8150000   20.8650000   19.6450000  
O 20.5320000   13.4550000   21.8560000  
O 17.9340000   13.6780000   22.5450000  
H 17.3160000   18.8430000   20.9310000  
H 17.9180000   20.5290000   20.5840000  
H 21.4860000   18.1540000   20.1420000  
H 19.8830000   12.9200000   22.3660000  
H 16.9760000   13.8930000   22.6270000  
C 22.1390000   15.6050000   20.7330000  
C 23.0670000   16.5050000   21.2510000  
C 24.3910000   16.4330000   20.9920000  
C 25.0080000   15.5360000   20.1230000  
C 24.1060000   14.6300000   19.4480000  
C 22.6800000   14.7100000   19.7710000  
C 22.8570000   17.5550000   22.2360000  
C 24.1510000   17.9610000   22.6150000  
N 25.1200000   17.2240000   21.8360000  
O 23.5280000   19.5790000   24.2530000  
C 24.4880000   19.1320000   23.4420000  
O 25.5670000   19.6790000   23.5130000  
O 24.5620000   13.7470000   18.4840000  
O 21.8510000   13.9350000   19.1650000  
H 21.8810000   17.7880000   22.6180000  
H 22.8430000   19.1280000   23.7720000  
H 26.1020000   17.3670000   21.8420000  
H 23.9620000   13.0810000   18.1610000  
H 21.0440000   14.1200000   19.7040000  
H 26.0510000   15.6250000   19.8820000  
