76
110 
C 10.8870000   13.1440000   21.8580000  
C  9.9600000   13.7340000   20.8930000  
C 10.3280000   14.7870000   20.0860000  
C 11.5430000   15.3080000   19.9980000  
C 12.6310000   14.6670000   20.7980000  
C 12.2810000   13.6130000   21.6730000  
C  9.5020000   15.4630000   19.1410000  
C 10.3770000   16.3300000   18.5250000  
N 11.6300000   16.2390000   19.0950000  
O  8.8330000   16.7440000   16.7780000  
C  9.9200000   17.1790000   17.4040000  
O 10.6350000   18.0430000   16.8930000  
O 13.1470000   12.9750000   22.4500000  
O 10.4570000   12.3230000   22.6150000  
H  8.9420000   13.3200000   21.0640000  
H  8.4940000   15.1550000   19.0050000  
H  8.5770000   16.0060000   17.2970000  
H 13.9820000   13.4320000   22.3330000  
C 13.9730000   15.3580000   20.8350000  
C 14.2430000   16.3380000   21.8240000  
C 15.5150000   16.7360000   22.1010000  
C 16.6430000   16.2490000   21.3800000  
C 16.4190000   15.3410000   20.3680000  
C 15.1110000   14.9200000   20.0390000  
C 13.4090000   16.7900000   22.8530000  
C 14.2000000   17.5330000   23.7170000  
N 15.5190000   17.4910000   23.2490000  
O 12.4990000   17.9880000   25.4230000  
C 13.7490000   18.1340000   25.0200000  
O 14.5710000   18.7380000   25.7190000  
O 17.5550000   14.8580000   19.7490000  
O 14.9270000   14.0110000   18.9890000  
H 12.4430000   16.4390000   23.0930000  
H 12.0550000   17.7780000   24.6510000  
H 16.3250000   17.7820000   23.6850000  
H 17.2690000   14.2820000   19.0840000  
H 13.9980000   13.8760000   18.7780000  
C 17.9760000   16.7120000   21.7110000  
C 18.8020000   15.8740000   22.4250000  
C 20.0340000   16.2840000   22.8790000  
C 20.5760000   17.5740000   22.5730000  
C 19.7010000   18.4190000   21.8220000  
C 18.4170000   17.9940000   21.3660000  
C 18.6220000   14.5320000   22.8730000  
C 19.7590000   14.1610000   23.6490000  
N 20.6990000   15.2390000   23.5510000  
O 19.2690000   11.9310000   24.2410000  
C 20.1340000   12.9440000   24.3210000  
O 21.1700000   12.8670000   24.9270000  
O 20.1500000   19.7400000   21.5440000  
O 17.7080000   18.8410000   20.5160000  
H 17.6870000   14.0250000   22.7340000  
H 18.5370000   12.3030000   23.7290000  
H 21.5930000   15.2830000   23.9540000  
H 21.0950000   19.6280000   21.2730000  
H 18.0450000   19.7410000   20.6990000  
C 21.9100000   18.0620000   22.9950000  
C 23.0210000   18.1000000   22.0510000  
C 24.2180000   18.6760000   22.3800000  
C 24.4850000   19.1520000   23.6450000  
C 23.3970000   19.1010000   24.5960000  
C 22.1380000   18.5100000   24.3110000  
C 23.1270000   17.7220000   20.6620000  
C 24.3520000   18.1440000   20.1800000  
N 25.0290000   18.7220000   21.3080000  
O 24.0550000   17.4670000   17.9340000  
C 24.9020000   18.0090000   18.8190000  
O 26.0170000   18.3960000   18.5050000  
O 23.5970000   19.4480000   25.9050000  
O 21.1870000   18.3320000   25.3280000  
H 22.2380000   17.4340000   20.0110000  
H 23.3370000   17.0880000   18.4290000  
H 25.9770000   19.0990000   21.2490000  
H 22.8510000   19.1440000   26.4350000  
H 20.3390000   18.1310000   24.9690000  
H 25.3870000   19.6870000   23.8640000  
