76
110 
C 10.5020000   14.8200000   20.3360000  
C  9.5160000   15.5400000   21.1490000  
C  9.8260000   16.5170000   22.0150000  
C 11.1410000   16.9030000   22.2100000  
C 12.2140000   16.2080000   21.4890000  
C 11.9120000   15.2200000   20.5550000  
C  9.1150000   17.3580000   22.9030000  
C 10.1230000   18.0870000   23.4980000  
N 11.3760000   17.8410000   23.0930000  
O  8.5540000   19.3220000   24.8970000  
C  9.8770000   19.1070000   24.5550000  
O 10.7810000   19.7700000   25.0380000  
O 12.7940000   14.5030000   19.8480000  
O 10.2160000   13.9300000   19.5640000  
H  8.4920000   15.2100000   20.9270000  
H  8.0900000   17.4810000   22.9780000  
H  8.1850000   18.4380000   24.7680000  
H 13.5800000   14.6810000   20.3460000  
C 13.6130000   16.5620000   21.7180000  
C 14.4210000   15.5360000   22.2970000  
C 15.8110000   15.6960000   22.3500000  
C 16.5130000   16.8240000   21.8310000  
C 15.6990000   17.9180000   21.4060000  
C 14.2670000   17.7960000   21.3800000  
C 14.2090000   14.1770000   22.8130000  
C 15.4760000   13.5800000   23.1140000  
N 16.4280000   14.5940000   22.8900000  
O 14.5210000   11.5310000   23.8980000  
C 15.6040000   12.2000000   23.5830000  
O 16.6560000   11.6130000   23.7270000  
O 16.3040000   19.0660000   20.8910000  
O 13.5970000   18.8820000   20.8460000  
H 13.2100000   13.7900000   22.7950000  
H 13.7990000   12.2440000   23.7240000  
H 17.4120000   14.6420000   23.1220000  
H 15.7100000   19.6150000   20.3960000  
H 12.6880000   18.5010000   20.7430000  
C 17.9700000   16.8220000   21.9030000  
C 18.6530000   16.0130000   21.0210000  
C 19.9880000   15.8250000   21.1080000  
C 20.7890000   16.5760000   21.9900000  
C 20.1500000   17.4650000   22.8790000  
C 18.7180000   17.6690000   22.7900000  
C 18.2190000   15.1630000   19.9180000  
C 19.3440000   14.5700000   19.4410000  
N 20.4630000   14.9990000   20.0990000  
O 18.2400000   13.2020000   17.9210000  
C 19.3820000   13.4470000   18.5060000  
O 20.3570000   12.8450000   18.1820000  
O 20.9670000   18.1200000   23.7930000  
O 18.0990000   18.3670000   23.8320000  
H 17.1900000   15.0590000   19.5630000  
H 17.6700000   13.9510000   18.0810000  
H 21.4540000   14.6360000   19.9900000  
H 21.9040000   17.9670000   23.5710000  
H 17.1540000   18.2790000   23.7540000  
C 22.2800000   16.5660000   21.7930000  
C 22.9620000   17.7170000   21.3760000  
C 24.3190000   17.6400000   21.3200000  
C 25.1100000   16.4690000   21.5670000  
C 24.4340000   15.3060000   21.9200000  
C 23.0320000   15.3470000   22.0440000  
C 22.5880000   19.0450000   21.0550000  
C 23.7420000   19.7780000   20.8300000  
N 24.8190000   18.8380000   20.9400000  
O 22.7480000   21.9470000   20.5700000  
C 23.8640000   21.2170000   20.6070000  
O 25.0010000   21.6740000   20.4720000  
O 25.0870000   14.1450000   22.1820000  
O 22.4030000   14.2630000   22.5470000  
H 21.5770000   19.4550000   21.0320000  
H 21.9980000   21.3490000   20.6830000  
H 25.7850000   19.0420000   21.0500000  
H 24.4680000   13.6610000   22.7200000  
H 21.4830000   14.3670000   22.1970000  
H 26.1620000   16.4420000   21.4710000  
