76
110 
C 12.5950000   10.9280000   20.2890000  
C 13.1680000   10.0490000   19.2910000  
C 14.4180000   10.2590000   18.7750000  
C 15.1820000   11.3770000   19.1580000  
C 14.6900000   12.3010000   20.1940000  
C 13.4320000   12.0790000   20.7370000  
C 15.1110000    9.6800000   17.7160000  
C 16.1780000   10.5200000   17.4740000  
N 16.2890000   11.5590000   18.4100000  
O 16.9500000    9.1770000   15.6490000  
C 17.1220000   10.3350000   16.3700000  
O 18.0130000   11.1270000   16.1000000  
O 12.8860000   12.9290000   21.6260000  
O 11.4910000   10.6700000   20.6280000  
H 12.5200000    9.2320000   18.8980000  
H 14.9250000    8.7760000   17.0700000  
H 16.1510000    8.7590000   16.0740000  
H 13.5770000   13.5920000   21.8800000  
C 15.5210000   13.4660000   20.5510000  
C 15.0970000   14.7400000   20.2500000  
C 15.9220000   15.8180000   20.4850000  
C 17.2780000   15.7390000   20.9860000  
C 17.6560000   14.4190000   21.3120000  
C 16.8040000   13.2800000   21.1090000  
C 13.9410000   15.3260000   19.5530000  
C 14.0850000   16.7530000   19.5550000  
N 15.3550000   16.9910000   20.1710000  
O 11.8270000   17.2470000   18.6520000  
C 13.0480000   17.7370000   19.0600000  
O 13.2770000   18.9360000   19.1400000  
O 18.8740000   14.2530000   21.9190000  
O 17.0890000   11.9890000   21.5640000  
H 13.0460000   14.8200000   19.0930000  
H 11.9860000   16.2830000   18.5020000  
H 15.7640000   17.9210000   20.2860000  
H 19.1250000   13.3000000   21.8620000  
H 16.3310000   11.4670000   21.4190000  
C 18.0600000   16.9770000   21.5130000  
C 17.4930000   17.8020000   22.5350000  
C 18.1850000   18.8530000   23.0760000  
C 19.3870000   19.3310000   22.5630000  
C 19.9450000   18.5710000   21.5420000  
C 19.3230000   17.4440000   20.9800000  
C 16.2530000   17.8110000   23.2330000  
C 16.3330000   18.9050000   24.1640000  
N 17.5110000   19.5780000   23.9660000  
O 14.1000000   18.7030000   25.0100000  
C 15.2510000   19.4500000   25.0110000  
O 15.3920000   20.4500000   25.7250000  
O 21.1500000   18.9890000   21.0620000  
O 19.9040000   16.8600000   19.8420000  
H 15.3860000   17.1210000   23.0520000  
H 14.2520000   18.0370000   24.2880000  
H 17.8500000   20.4230000   24.3970000  
H 21.2370000   19.9000000   21.4760000  
H 20.8360000   17.0310000   19.7960000  
C 20.0640000   20.4550000   23.2440000  
C 20.6400000   20.3680000   24.4910000  
C 21.3310000   21.4020000   25.0300000  
C 21.7830000   22.4980000   24.3040000  
C 21.2910000   22.6280000   23.0280000  
C 20.3430000   21.6410000   22.4780000  
C 20.5890000   19.3150000   25.4530000  
C 21.1310000   19.7860000   26.5980000  
N 21.6390000   21.0700000   26.3460000  
O 20.7680000   17.9090000   28.1100000  
C 21.1950000   19.2090000   27.9310000  
O 21.5890000   19.7400000   28.9390000  
O 21.6300000   23.7360000   22.2900000  
O 19.9870000   21.7680000   21.1710000  
H 20.1350000   18.2540000   25.3870000  
H 20.7130000   17.5350000   27.2050000  
H 22.0570000   21.6850000   26.9940000  
H 21.4310000   23.4660000   21.3660000  
H 19.1900000   21.3090000   20.9710000  
H 22.4380000   23.2370000   24.8100000  
