76
110 
C 11.6020000   17.6650000   26.3810000  
C 12.0100000   18.6590000   27.3990000  
C 13.3050000   19.0840000   27.2980000  
C 14.2790000   18.6590000   26.3310000  
C 13.8660000   17.7340000   25.3230000  
C 12.6220000   17.2260000   25.4020000  
C 14.0310000   19.9130000   28.1540000  
C 15.2380000   20.0780000   27.5630000  
N 15.4620000   19.1990000   26.5080000  
O 15.5690000   21.9410000   29.0640000  
C 16.2430000   21.0940000   28.1940000  
O 17.4230000   21.1420000   27.9100000  
O 12.1150000   16.2910000   24.4960000  
O 10.4320000   17.3810000   26.2290000  
H 11.2340000   19.1620000   27.9830000  
H 13.5470000   20.5060000   28.9750000  
H 14.6390000   21.6030000   29.1880000  
H 12.7690000   16.1900000   23.8290000  
C 14.7940000   17.3260000   24.2400000  
C 15.1150000   15.9650000   24.0420000  
C 16.0110000   15.5530000   23.1170000  
C 16.6410000   16.4910000   22.2020000  
C 16.2360000   17.8500000   22.2710000  
C 15.3910000   18.3030000   23.3510000  
C 14.7280000   14.7850000   24.7770000  
C 15.4960000   13.7190000   24.2820000  
N 16.2100000   14.2090000   23.1820000  
O 14.5250000   12.0250000   25.5870000  
C 15.4060000   12.2810000   24.6620000  
O 16.1540000   11.4580000   24.1240000  
O 16.7760000   18.8140000   21.4740000  
O 15.0910000   19.6290000   23.4730000  
H 14.0610000   14.6990000   25.6370000  
H 14.0560000   12.8970000   25.7810000  
H 16.8170000   13.6070000   22.6380000  
H 16.2950000   19.5820000   21.7470000  
H 14.5030000   19.8770000   24.2920000  
C 17.5780000   16.0110000   21.2000000  
C 17.2790000   16.2440000   19.8470000  
C 18.0900000   15.9070000   18.8550000  
C 19.3170000   15.2400000   19.0760000  
C 19.6500000   14.8250000   20.4020000  
C 18.7640000   15.2470000   21.4450000  
C 16.1040000   16.8220000   19.2180000  
C 16.3010000   16.6950000   17.7950000  
N 17.5860000   16.1060000   17.5940000  
O 14.3040000   17.7620000   17.1420000  
C 15.5040000   17.2730000   16.7240000  
O 15.7630000   17.3740000   15.5750000  
O 20.8200000   14.1710000   20.6800000  
O 19.1560000   15.0140000   22.7990000  
H 15.2520000   17.1220000   19.7370000  
H 14.3500000   17.7350000   18.0870000  
H 18.0650000   16.0200000   16.7120000  
H 21.0460000   13.8020000   19.8150000  
H 20.0470000   14.5740000   22.8110000  
C 20.1230000   14.7450000   17.9240000  
C 21.3330000   15.4090000   17.5910000  
C 22.1430000   14.9430000   16.5640000  
C 21.8160000   13.8490000   15.7700000  
C 20.5310000   13.2530000   16.0440000  
C 19.6940000   13.6520000   17.1380000  
C 21.9610000   16.4440000   18.2580000  
C 23.1610000   16.6600000   17.6780000  
N 23.2120000   15.7900000   16.5460000  
O 23.9420000   18.1670000   19.4190000  
C 24.2480000   17.4900000   18.2510000  
O 25.3420000   17.5340000   17.7350000  
O 20.2020000   12.1420000   15.2950000  
O 18.4830000   13.0060000   17.5450000  
H 21.6280000   16.9290000   19.1930000  
H 22.9730000   18.2430000   19.3810000  
H 24.0700000   15.7350000   16.0610000  
H 19.5360000   11.6280000   15.7780000  
H 18.2010000   13.2360000   18.4740000  
H 22.4880000   13.4980000   15.0350000  
