76
110 
C 13.4820000   19.9120000   26.8080000  
C 13.1860000   19.0980000   28.0450000  
C 13.6920000   17.8440000   28.1730000  
C 14.4890000   17.3520000   27.1430000  
C 14.8090000   18.0910000   25.9120000  
C 14.3810000   19.3990000   25.7180000  
C 13.6140000   16.9310000   29.1640000  
C 14.2020000   15.7540000   28.6300000  
N 14.7810000   16.0630000   27.3940000  
O 13.7480000   14.3860000   30.5750000  
C 14.3240000   14.4750000   29.3270000  
O 14.9980000   13.6130000   28.8110000  
O 14.5940000   20.1830000   24.7090000  
O 13.0130000   21.0520000   26.7690000  
H 12.5120000   19.4900000   28.7550000  
H 13.1440000   17.0270000   30.1150000  
H 13.4500000   15.2620000   30.6900000  
H 15.1810000   19.6860000   24.0860000  
C 15.4250000   17.3640000   24.7270000  
C 14.7560000   17.1890000   23.5030000  
C 15.4360000   16.6580000   22.4430000  
C 16.7790000   16.3370000   22.3810000  
C 17.4390000   16.4790000   23.6250000  
C 16.7990000   16.9880000   24.7650000  
C 13.4490000   17.4760000   23.0210000  
C 13.4170000   17.2620000   21.6300000  
N 14.7020000   16.8050000   21.2760000  
O 11.2260000   18.1170000   21.4020000  
C 12.2620000   17.5650000   20.7860000  
O 12.2760000   17.4230000   19.5760000  
O 18.7060000   16.2580000   23.6840000  
O 17.5900000   17.3320000   25.9230000  
H 12.6200000   17.9080000   23.6910000  
H 11.3530000   17.9590000   22.3700000  
H 15.0580000   16.5070000   20.3470000  
H 18.9310000   16.6330000   24.5880000  
H 16.9670000   17.6090000   26.6570000  
C 17.4570000   15.7950000   21.1410000  
C 17.9380000   16.6660000   20.1920000  
C 18.6590000   16.2030000   19.1520000  
C 18.9290000   14.8690000   18.8260000  
C 18.5530000   13.9630000   19.8870000  
C 17.8250000   14.4290000   20.9890000  
C 17.6760000   18.0880000   19.9310000  
C 18.4070000   18.4320000   18.7960000  
N 18.9580000   17.2510000   18.2340000  
O 17.7780000   20.7080000   19.1020000  
C 18.4470000   19.8370000   18.2870000  
O 19.0250000   20.1350000   17.2180000  
O 18.8410000   12.6180000   19.8360000  
O 17.1760000   13.5550000   21.8150000  
H 16.8640000   18.5930000   20.4600000  
H 17.2800000   20.1640000   19.7570000  
H 19.6560000   17.2260000   17.5220000  
H 19.4580000   12.3580000   19.0860000  
H 16.4610000   14.0720000   22.1550000  
C 19.6810000   14.4670000   17.5960000  
C 21.0420000   14.8480000   17.4680000  
C 21.7870000   14.4270000   16.3850000  
C 21.2800000   13.6270000   15.3190000  
C 19.9390000   13.2390000   15.4420000  
C 19.1700000   13.6170000   16.5870000  
C 21.9220000   15.5870000   18.4130000  
C 23.1380000   15.6470000   17.7810000  
N 23.0520000   14.9310000   16.5890000  
O 24.1490000   17.2280000   19.3190000  
C 24.3440000   16.3630000   18.2690000  
O 25.4610000   16.2830000   17.7990000  
O 19.3660000   12.5410000   14.4090000  
O 17.8450000   13.1960000   16.7080000  
H 21.8450000   15.9370000   19.3980000  
H 23.2780000   17.0930000   19.6580000  
H 23.8210000   14.8030000   15.9950000  
H 18.4590000   12.3820000   14.7560000  
H 17.6460000   13.5280000   17.5890000  
H 21.8580000   13.3970000   14.4300000  
