76
110 
C 16.7600000    9.2340000   20.6330000  
C 18.0620000    8.5780000   20.9230000  
C 19.1650000    9.4380000   21.0640000  
C 19.1120000   10.8430000   21.2310000  
C 17.8690000   11.4560000   21.1270000  
C 16.7800000   10.7120000   20.6520000  
C 20.5470000    9.0250000   21.2650000  
C 21.2020000   10.2070000   21.6080000  
N 20.3110000   11.3430000   21.5760000  
O 23.2700000    9.1100000   22.0010000  
C 22.5810000   10.2900000   22.0610000  
O 23.1040000   11.3170000   22.4590000  
O 15.4820000   11.2240000   20.5090000  
O 15.7520000    8.6000000   20.4210000  
H 18.0660000    7.4500000   20.9560000  
H 20.8290000    7.9980000   21.3190000  
H 22.7280000    8.5730000   21.4500000  
H 15.6060000   12.1350000   20.7420000  
C 17.7830000   12.9110000   21.4370000  
C 17.7650000   13.7820000   20.3580000  
C 17.8200000   15.1020000   20.5950000  
C 17.7160000   15.7620000   21.8450000  
C 17.6790000   14.9250000   22.9290000  
C 17.7620000   13.5230000   22.7030000  
C 17.8340000   13.5240000   18.9210000  
C 17.9190000   14.7910000   18.3450000  
N 17.6830000   15.7740000   19.3070000  
O 18.3860000   14.0200000   16.0270000  
C 18.2830000   15.0670000   16.9230000  
O 18.4920000   16.1520000   16.4340000  
O 17.7320000   15.3660000   24.2020000  
O 17.7440000   12.7800000   23.8710000  
H 17.9890000   12.5560000   18.4200000  
H 17.9350000   13.2080000   16.3730000  
H 17.8340000   16.7880000   19.2010000  
H 17.5390000   14.7440000   24.9030000  
H 17.8790000   11.8360000   23.6320000  
C 17.6640000   17.2550000   21.8920000  
C 16.3630000   17.7800000   21.9060000  
C 16.1830000   19.1370000   22.0270000  
C 17.2500000   20.0820000   22.1580000  
C 18.5510000   19.5490000   22.0700000  
C 18.7420000   18.1640000   21.9500000  
C 14.9950000   17.2430000   21.8720000  
C 14.1070000   18.3160000   21.9140000  
N 14.8760000   19.4540000   22.0080000  
O 11.9320000   17.2500000   21.6660000  
C 12.6250000   18.3990000   21.7570000  
O 12.0250000   19.4900000   21.7080000  
O 19.6330000   20.3800000   22.1420000  
O 19.9730000   17.6530000   22.1590000  
H 14.7150000   16.2200000   21.7090000  
H 12.6400000   16.5370000   21.6120000  
H 14.4620000   20.3940000   21.9390000  
H 19.2860000   21.2360000   22.4250000  
H 20.5400000   18.4250000   22.1440000  
C 17.0070000   21.5510000   22.2550000  
C 16.2830000   21.9960000   23.3840000  
C 15.7060000   23.2420000   23.3470000  
C 15.8480000   24.1180000   22.2790000  
C 16.5770000   23.7240000   21.1700000  
C 17.1850000   22.4140000   21.1410000  
C 15.8320000   21.3800000   24.5400000  
C 14.9980000   22.2710000   25.2150000  
N 14.9760000   23.4950000   24.5140000  
O 14.4640000   20.7070000   26.8660000  
C 14.2320000   21.9270000   26.4310000  
O 13.4290000   22.6900000   26.9330000  
O 16.5220000   24.5320000   20.0230000  
O 17.6530000   22.0070000   19.9320000  
H 16.0110000   20.3680000   24.7860000  
H 15.1780000   20.3650000   26.2770000  
H 14.3490000   24.2480000   24.7960000  
H 17.3270000   24.3420000   19.4730000  
H 17.9500000   21.0630000   19.9190000  
H 15.3660000   25.1330000   22.2140000  
