76
110 
C 12.1930000   11.3430000   19.2680000  
C 11.1270000   12.1710000   18.6170000  
C 11.4360000   13.4720000   18.4310000  
C 12.6560000   14.0960000   18.7020000  
C 13.6900000   13.3960000   19.4950000  
C 13.4090000   12.0360000   19.7910000  
C 10.6260000   14.5480000   18.0010000  
C 11.4060000   15.7060000   18.0580000  
N 12.6960000   15.3850000   18.4390000  
O  9.7090000   17.1380000   17.1340000  
C 11.0610000   17.0260000   17.5080000  
O 11.8420000   17.9410000   17.3480000  
O 14.2930000   11.2290000   20.4390000  
O 11.8830000   10.1760000   19.4890000  
H 10.1860000   11.7550000   18.3610000  
H  9.5800000   14.5270000   17.5780000  
H  9.2870000   16.3610000   17.5070000  
H 14.8750000   11.8460000   20.8990000  
C 14.8860000   14.0330000   20.0040000  
C 14.9990000   14.3850000   21.3870000  
C 15.9120000   15.2200000   21.7960000  
C 16.8250000   15.8180000   20.9860000  
C 16.7620000   15.5430000   19.6130000  
C 15.7930000   14.6530000   19.1090000  
C 14.2180000   14.0870000   22.5210000  
C 14.7260000   14.7250000   23.6360000  
N 15.8440000   15.5070000   23.1880000  
O 13.2880000   13.8560000   25.3820000  
C 14.2200000   14.7320000   25.0560000  
O 14.7920000   15.4020000   25.9250000  
O 17.6460000   16.1970000   18.7320000  
O 15.6370000   14.4080000   17.8140000  
H 13.3240000   13.4550000   22.6060000  
H 13.0370000   13.4270000   24.5900000  
H 16.3030000   16.2410000   23.6720000  
H 17.3010000   15.9890000   17.8050000  
H 14.7670000   13.9970000   17.7070000  
C 17.8420000   16.6850000   21.6740000  
C 18.7460000   16.1960000   22.6060000  
C 19.6790000   16.9920000   23.2180000  
C 19.7150000   18.4130000   23.1230000  
C 18.9230000   18.9420000   22.0870000  
C 17.9580000   18.0900000   21.4020000  
C 18.8950000   14.8720000   23.0860000  
C 20.0050000   14.9430000   23.9130000  
N 20.5490000   16.2570000   23.9630000  
O 19.7350000   12.7750000   24.7100000  
C 20.5000000   13.8670000   24.7690000  
O 21.4420000   13.9430000   25.5540000  
O 18.7960000   20.3330000   21.9250000  
O 17.0890000   18.7170000   20.5030000  
H 18.2750000   13.9890000   22.8900000  
H 19.0870000   12.9250000   24.0500000  
H 21.4260000   16.4900000   24.4130000  
H 19.2140000   20.7810000   22.7230000  
H 16.3600000   18.0670000   20.4960000  
C 20.6640000   19.2540000   23.8190000  
C 21.6720000   19.9850000   23.1690000  
C 22.5950000   20.7430000   23.8860000  
C 22.5980000   20.9000000   25.2520000  
C 21.7550000   19.9640000   25.9090000  
C 20.7760000   19.2260000   25.2270000  
C 21.9260000   20.2310000   21.7750000  
C 23.1040000   20.9960000   21.6960000  
N 23.3870000   21.4530000   23.0020000  
O 23.2640000   21.1670000   19.3520000  
C 23.8170000   21.5080000   20.5470000  
O 24.8380000   22.1440000   20.6670000  
O 21.6410000   20.0080000   27.2750000  
O 19.8880000   18.4500000   25.9460000  
H 21.2940000   19.8690000   21.0070000  
H 22.5010000   20.7450000   19.6400000  
H 24.0750000   22.1330000   23.1970000  
H 20.8060000   19.5300000   27.4590000  
H 19.5640000   17.7490000   25.3440000  
H 23.2240000   21.6270000   25.7540000  
