76
110 
C 11.4840000   13.3220000   18.5840000  
C 10.1840000   13.9950000   18.9060000  
C 10.2190000   15.0920000   19.7570000  
C 11.4460000   15.5640000   20.2830000  
C 12.6990000   14.9480000   20.0380000  
C 12.7090000   13.8100000   19.2410000  
C  9.2280000   15.9620000   20.2110000  
C  9.8970000   16.7840000   21.0600000  
N 11.3050000   16.5990000   21.0770000  
O  7.9670000   18.0290000   21.5790000  
C  9.2670000   17.9580000   21.7840000  
O  9.8090000   18.7550000   22.5530000  
O 13.8160000   13.1040000   18.8970000  
O 11.5290000   12.3670000   17.8440000  
H  9.3080000   13.5350000   18.4560000  
H  8.1680000   15.8450000   19.9560000  
H  7.6490000   17.1300000   21.3710000  
H 14.5310000   13.6050000   19.4380000  
C 13.8560000   15.6300000   20.6530000  
C 14.4550000   15.1030000   21.8240000  
C 15.6590000   15.5890000   22.2450000  
C 16.3920000   16.6520000   21.6620000  
C 15.8420000   17.1200000   20.4570000  
C 14.6080000   16.6350000   19.9700000  
C 14.1040000   13.9950000   22.7420000  
C 15.1040000   13.9830000   23.7050000  
N 16.1160000   14.8920000   23.3000000  
O 14.1640000   12.1880000   25.0920000  
C 15.1730000   13.1550000   24.9340000  
O 16.1260000   13.2760000   25.6940000  
O 16.4880000   17.9890000   19.6410000  
O 14.0940000   17.0110000   18.7570000  
H 13.2520000   13.4200000   22.6640000  
H 13.5790000   12.2440000   24.3290000  
H 16.9770000   15.0580000   23.8090000  
H 15.8410000   18.3570000   19.0530000  
H 13.1890000   16.6330000   18.8720000  
C 17.7980000   17.0500000   21.9830000  
C 18.8070000   16.0780000   21.9050000  
C 20.0620000   16.3580000   22.3440000  
C 20.4480000   17.6480000   22.8670000  
C 19.4800000   18.6970000   22.7870000  
C 18.1560000   18.3780000   22.4360000  
C 18.8350000   14.6780000   21.4840000  
C 20.1660000   14.2550000   21.7500000  
N 20.9100000   15.2930000   22.2990000  
O 19.7430000   12.1280000   20.9210000  
C 20.6610000   12.9120000   21.5440000  
O 21.7350000   12.5730000   21.8880000  
O 19.8380000   19.9810000   22.9450000  
O 17.1800000   19.3600000   22.4220000  
H 18.0060000   14.1380000   20.9820000  
H 19.0240000   12.7780000   20.6420000  
H 21.8670000   15.2630000   22.5550000  
H 20.6590000   20.0010000   23.4540000  
H 16.3290000   18.8600000   22.4140000  
C 21.8650000   17.9520000   23.2080000  
C 22.6820000   18.8210000   22.4160000  
C 23.9490000   19.2680000   22.8640000  
C 24.3960000   18.8300000   24.0890000  
C 23.5950000   18.0420000   24.9330000  
C 22.3830000   17.5180000   24.4490000  
C 22.5680000   19.3530000   21.0610000  
C 23.6970000   20.1480000   20.8370000  
N 24.5540000   20.1010000   21.9450000  
O 23.0330000   20.5630000   18.5480000  
C 23.9380000   20.8170000   19.4940000  
O 24.8380000   21.6020000   19.2550000  
O 24.1060000   17.6040000   26.1080000  
O 21.7240000   16.5430000   25.1510000  
H 21.8330000   19.1030000   20.3930000  
H 22.4930000   19.9390000   19.0680000  
H 25.4330000   20.6450000   22.0660000  
H 23.5780000   16.8340000   26.4590000  
H 20.8190000   16.4080000   24.8000000  
H 25.3640000   19.1350000   24.4280000  
