76
110 
C 20.0310000    9.5430000   19.7930000  
C 20.4230000    9.0880000   21.0980000  
C 20.2950000    9.9190000   22.1610000  
C 19.7270000   11.1890000   22.1790000  
C 19.3090000   11.6810000   20.8820000  
C 19.4100000   10.8540000   19.7550000  
C 20.3620000    9.6100000   23.5470000  
C 19.9160000   10.7740000   24.2670000  
N 19.5400000   11.7630000   23.3390000  
O 20.3780000    9.9860000   26.4270000  
C 19.8360000   10.9670000   25.7140000  
O 19.1160000   11.8340000   26.2290000  
O 19.0290000   11.2630000   18.5340000  
O 20.0410000    8.8560000   18.7760000  
H 20.8300000    8.0680000   21.0420000  
H 20.5170000    8.6670000   23.9810000  
H 20.8290000    9.4880000   25.8020000  
H 18.2460000   11.7770000   18.7660000  
C 18.7060000   12.9930000   20.7710000  
C 19.4000000   14.1420000   21.2150000  
C 18.7540000   15.3920000   21.3110000  
C 17.4170000   15.5900000   20.9870000  
C 16.7630000   14.4750000   20.5310000  
C 17.3530000   13.2240000   20.3310000  
C 20.7260000   14.2590000   21.8780000  
C 20.7550000   15.6080000   22.3180000  
N 19.5340000   16.2750000   21.9410000  
O 22.8830000   15.3140000   23.1640000  
C 21.8430000   16.1400000   22.9800000  
O 21.8350000   17.3100000   23.3610000  
O 15.4120000   14.4760000   20.2720000  
O 16.5780000   12.2140000   19.8280000  
H 21.4760000   13.4910000   21.8460000  
H 22.6240000   14.5930000   22.6230000  
H 19.2850000   17.2540000   22.1150000  
H 15.0610000   15.2920000   20.6180000  
H 15.7680000   12.6550000   19.4600000  
C 16.6640000   16.7960000   21.3490000  
C 17.1440000   18.0260000   20.8760000  
C 16.5360000   19.1890000   21.2280000  
C 15.4520000   19.2760000   22.0930000  
C 14.9290000   18.0750000   22.6130000  
C 15.5300000   16.8520000   22.2690000  
C 18.0940000   18.4340000   19.8790000  
C 18.0450000   19.7650000   19.6270000  
N 16.9340000   20.1980000   20.4210000  
O 19.8450000   19.8430000   18.0570000  
C 18.9840000   20.5790000   18.7530000  
O 18.9270000   21.7940000   18.7660000  
O 13.8960000   18.1700000   23.5150000  
O 15.1080000   15.7040000   22.9290000  
H 18.7880000   17.7560000   19.4110000  
H 19.6770000   18.9510000   18.3640000  
H 16.4790000   21.1170000   20.4470000  
H 13.6940000   19.1210000   23.5150000  
H 14.7950000   15.9360000   23.8250000  
C 14.8680000   20.6220000   22.6110000  
C 13.6400000   21.0830000   22.0920000  
C 13.1210000   22.2660000   22.4260000  
C 13.8830000   23.1810000   23.1340000  
C 15.1300000   22.8060000   23.6960000  
C 15.6600000   21.5200000   23.3670000  
C 12.6910000   20.4720000   21.3210000  
C 11.5910000   21.2490000   21.1430000  
N 11.8610000   22.4130000   21.8690000  
O 10.1740000   19.7970000   19.8880000  
C 10.3060000   21.0640000   20.3990000  
O  9.5160000   21.9440000   20.1720000  
O 15.8740000   23.8050000   24.3150000  
O 16.8560000   21.1980000   23.8260000  
H 12.7350000   19.4780000   20.8690000  
H 10.7870000   19.2840000   20.4450000  
H 11.1560000   23.1390000   22.0780000  
H 16.5490000   23.3470000   24.8370000  
H 17.1120000   20.3850000   23.2800000  
H 13.4870000   24.1640000   23.3230000  
