76
110 
C 10.7150000   18.8230000   24.4810000  
C 10.0140000   17.5990000   24.9200000  
C 10.6020000   16.3660000   24.7120000  
C 11.8950000   16.1770000   24.1940000  
C 12.6830000   17.2940000   23.8320000  
C 12.1010000   18.5670000   24.0220000  
C 10.1130000   15.1130000   24.9840000  
C 11.0780000   14.2280000   24.5120000  
N 12.2490000   14.9340000   24.0660000  
O  9.6520000   12.2550000   24.9470000  
C 10.8710000   12.7430000   24.5540000  
O 11.7630000   12.0290000   24.2300000  
O 12.7070000   19.6950000   23.6950000  
O 10.1070000   19.9080000   24.5830000  
H  8.9850000   17.7960000   25.2450000  
H  9.1580000   14.8280000   25.4150000  
H  9.1610000   13.0300000   25.0240000  
H 13.5610000   19.4610000   23.2290000  
C 13.9890000   16.9280000   23.3280000  
C 14.2130000   16.9760000   21.9230000  
C 15.4260000   16.7470000   21.3780000  
C 16.5240000   16.3770000   22.1960000  
C 16.2920000   16.1890000   23.6170000  
C 14.9970000   16.4660000   24.1690000  
C 13.2930000   17.3020000   20.8640000  
C 14.0960000   17.3930000   19.7120000  
N 15.4490000   16.9840000   20.0260000  
O 12.2130000   17.9930000   18.4150000  
C 13.5400000   17.8420000   18.4450000  
O 14.1850000   18.0090000   17.4410000  
O 17.3120000   15.8200000   24.4530000  
O 14.8660000   16.5210000   25.5600000  
H 12.2770000   17.6660000   21.0740000  
H 12.0770000   18.0860000   19.4170000  
H 16.2710000   16.9180000   19.3850000  
H 17.0210000   16.0840000   25.3700000  
H 13.9550000   16.8350000   25.7410000  
C 17.8730000   16.0740000   21.6740000  
C 18.6330000   17.1370000   21.0960000  
C 19.8800000   16.8340000   20.5820000  
C 20.4720000   15.5760000   20.5290000  
C 19.6880000   14.4710000   21.0030000  
C 18.4850000   14.7160000   21.6710000  
C 18.3560000   18.4890000   20.6370000  
C 19.4530000   18.9650000   19.9240000  
N 20.3600000   17.9150000   19.8730000  
O 18.4620000   21.0920000   19.7380000  
C 19.6110000   20.4010000   19.4120000  
O 20.6210000   20.8480000   18.8560000  
O 20.2720000   13.2300000   20.8820000  
O 17.8070000   13.7240000   22.2860000  
H 17.4390000   18.9710000   20.8760000  
H 17.8550000   20.3850000   20.0640000  
H 21.3090000   18.0120000   19.6790000  
H 20.0230000   12.6480000   21.6350000  
H 17.1060000   14.2220000   22.7960000  
C 21.8520000   15.3040000   19.8480000  
C 23.0080000   15.6420000   20.5170000  
C 24.2820000   15.5770000   19.8910000  
C 24.4870000   15.2150000   18.5480000  
C 23.2900000   14.8670000   17.8780000  
C 22.0410000   14.8900000   18.5050000  
C 23.1990000   16.0240000   21.8900000  
C 24.5320000   16.3290000   22.0230000  
N 25.2060000   15.9730000   20.8710000  
O 24.4330000   16.9340000   24.3940000  
C 25.2130000   16.7130000   23.3140000  
O 26.4160000   16.8260000   23.4530000  
O 23.3780000   14.5700000   16.5930000  
O 21.0030000   14.4200000   17.8440000  
H 22.5650000   16.3660000   22.7060000  
H 23.5070000   16.9560000   24.2150000  
H 26.1710000   15.9940000   20.7210000  
H 22.5160000   14.2430000   16.4860000  
H 20.2550000   14.3360000   18.4680000  
H 25.4430000   15.3510000   18.0740000  
