76
110 
C 22.3850000   11.4060000   21.2070000  
C 22.0460000   10.2920000   22.1500000  
C 20.8710000   10.3220000   22.8890000  
C 20.0380000   11.4100000   22.8860000  
C 20.2690000   12.4250000   21.9530000  
C 21.4510000   12.4810000   21.1450000  
C 20.4020000    9.4270000   23.8170000  
C 19.3270000   10.0580000   24.4110000  
N 19.0580000   11.2220000   23.7940000  
O 19.1820000    8.4560000   26.1830000  
C 18.6830000    9.5710000   25.6880000  
O 17.7190000   10.1020000   26.2540000  
O 21.7390000   13.4740000   20.3440000  
O 23.4290000   11.4100000   20.6320000  
H 22.7880000    9.4870000   22.2520000  
H 20.9700000    8.5150000   24.0250000  
H 19.8760000    8.2550000   25.5490000  
H 20.9420000   13.9780000   20.2360000  
C 19.3210000   13.5080000   22.0450000  
C 19.5570000   14.5610000   22.9040000  
C 18.7770000   15.6510000   22.8270000  
C 17.5910000   15.7210000   22.0470000  
C 17.3470000   14.5920000   21.1770000  
C 18.2490000   13.5290000   21.1270000  
C 20.6920000   15.0030000   23.6920000  
C 20.4510000   16.3330000   24.0790000  
N 19.2330000   16.7100000   23.5160000  
O 22.3360000   16.4850000   25.5590000  
C 21.1710000   17.1100000   25.1120000  
O 20.6870000   18.1170000   25.5110000  
O 16.2790000   14.6030000   20.3270000  
O 18.1610000   12.4840000   20.2360000  
H 21.5330000   14.4700000   23.9750000  
H 22.2700000   15.6110000   25.1620000  
H 18.7740000   17.5330000   23.8520000  
H 15.6540000   15.2670000   20.6570000  
H 17.2270000   12.2870000   20.1250000  
C 16.6550000   16.8510000   21.9350000  
C 16.9000000   18.0350000   21.2010000  
C 16.0290000   19.0870000   21.2790000  
C 14.7370000   19.0390000   21.8050000  
C 14.3950000   17.8590000   22.5280000  
C 15.3980000   16.7730000   22.6010000  
C 17.8860000   18.4790000   20.2510000  
C 17.6680000   19.8090000   19.9340000  
N 16.4450000   20.1050000   20.4650000  
O 19.6200000   20.2280000   18.6980000  
C 18.4360000   20.7360000   19.0580000  
O 17.9780000   21.7670000   18.6550000  
O 13.1000000   17.7040000   22.9350000  
O 15.0240000   15.6000000   23.2080000  
H 18.7910000   17.9650000   19.8840000  
H 19.5250000   19.3550000   19.0580000  
H 16.0500000   20.9900000   20.4900000  
H 12.4720000   18.2670000   22.4670000  
H 14.0830000   15.7520000   23.4250000  
C 13.7420000   20.1650000   21.5460000  
C 13.3120000   20.3650000   20.2330000  
C 12.4400000   21.3790000   19.9720000  
C 12.0040000   22.3080000   20.9630000  
C 12.2880000   21.9980000   22.2900000  
C 13.2330000   20.9530000   22.5820000  
C 13.5750000   19.6930000   18.9920000  
C 12.9200000   20.4240000   18.0480000  
N 12.1950000   21.4620000   18.6070000  
O 13.8280000   19.3050000   16.0670000  
C 12.8660000   20.1370000   16.5520000  
O 12.0200000   20.6570000   15.8380000  
O 11.6560000   22.7430000   23.2770000  
O 13.7130000   20.7930000   23.8280000  
H 14.1290000   18.7470000   18.8940000  
H 14.1290000   18.7480000   16.8400000  
H 11.6050000   22.1730000   18.0930000  
H 12.2510000   22.5390000   24.0110000  
H 14.6890000   20.7820000   23.6830000  
H 11.4030000   23.2240000   20.7200000  
