76
110 
C 13.9550000   10.5720000   18.8710000  
C 14.9420000    9.4570000   18.8250000  
C 16.2810000    9.6420000   19.2240000  
C 16.7680000   10.7770000   19.8080000  
C 15.8460000   11.8690000   19.9470000  
C 14.5330000   11.7970000   19.4790000  
C 17.4040000    8.8520000   19.0180000  
C 18.4910000    9.5960000   19.5260000  
N 18.0930000   10.7780000   19.9920000  
O 20.1560000    7.8120000   19.2600000  
C 19.8940000    9.0890000   19.6510000  
O 20.8360000    9.6480000   20.1680000  
O 13.7100000   12.8760000   19.6280000  
O 12.8150000   10.5040000   18.4290000  
H 14.4700000    8.5530000   18.4770000  
H 17.5120000    7.8840000   18.5850000  
H 19.3320000    7.5040000   18.7990000  
H 14.0850000   13.4310000   20.3640000  
C 16.3760000   13.0630000   20.6450000  
C 17.0270000   14.0470000   19.8590000  
C 17.3300000   15.2950000   20.3700000  
C 17.1170000   15.6480000   21.6480000  
C 16.4920000   14.6530000   22.5040000  
C 16.0440000   13.4270000   21.9780000  
C 17.3430000   14.1260000   18.4870000  
C 17.8070000   15.4230000   18.2010000  
N 17.7960000   16.1440000   19.3880000  
O 18.1890000   14.9320000   15.8770000  
C 18.4150000   15.8100000   16.8980000  
O 19.1430000   16.8330000   16.8570000  
O 16.2860000   14.8440000   23.8640000  
O 15.3640000   12.5320000   22.7560000  
H 17.2700000   13.2590000   17.7800000  
H 17.6250000   14.2440000   16.1450000  
H 18.3110000   17.0040000   19.5060000  
H 16.2260000   13.9590000   24.2000000  
H 14.8970000   11.8280000   22.1570000  
C 17.5260000   16.9660000   22.1690000  
C 16.6730000   18.0580000   21.9540000  
C 16.9500000   19.2910000   22.4440000  
C 18.1470000   19.6150000   23.0900000  
C 19.0970000   18.5160000   23.2860000  
C 18.7520000   17.2050000   22.8450000  
C 15.3670000   18.1910000   21.4330000  
C 14.9460000   19.4940000   21.5600000  
N 16.0010000   20.2250000   22.0810000  
O 12.9340000   19.2330000   20.5150000  
C 13.6930000   20.1250000   21.1020000  
O 13.3450000   21.2710000   21.1930000  
O 20.2720000   18.6770000   23.9560000  
O 19.6330000   16.1120000   23.0250000  
H 14.8770000   17.4310000   20.9050000  
H 13.3500000   18.3450000   20.5710000  
H 16.0890000   21.2230000   22.1620000  
H 20.1530000   19.5530000   24.3770000  
H 20.5100000   16.4260000   23.3500000  
C 18.5090000   20.9830000   23.5620000  
C 18.3060000   21.3610000   24.8910000  
C 18.4840000   22.6280000   25.2780000  
C 19.0090000   23.5860000   24.4510000  
C 19.2810000   23.2790000   23.1240000  
C 18.9820000   21.9820000   22.6440000  
C 17.8540000   20.6110000   26.0440000  
C 17.7340000   21.5620000   27.1270000  
N 18.1110000   22.8310000   26.6100000  
O 17.3200000   19.9670000   28.9240000  
C 17.4610000   21.2910000   28.6190000  
O 17.3960000   22.1260000   29.4560000  
O 19.9380000   24.2340000   22.3860000  
O 19.2160000   21.6790000   21.3650000  
H 17.7250000   19.5970000   26.1240000  
H 17.5780000   19.5250000   28.0700000  
H 18.1160000   23.6980000   27.2000000  
H 20.1330000   23.9270000   21.4840000  
H 18.7200000   20.8490000   21.3290000  
H 19.2100000   24.5670000   24.8290000  
