76
110 
C 20.5020000   17.4710000   28.2970000  
C 20.2620000   16.2480000   29.1170000  
C 19.7160000   15.1600000   28.5120000  
C 19.3330000   15.1300000   27.1810000  
C 19.4730000   16.2740000   26.3290000  
C 20.1000000   17.3700000   26.8480000  
C 19.4900000   13.8590000   28.9620000  
C 18.9650000   13.1340000   27.9070000  
N 18.8820000   13.9710000   26.7990000  
O 19.0750000   10.9390000   28.8630000  
C 18.7170000   11.6830000   27.8360000  
O 18.2680000   11.1440000   26.8560000  
O 20.1910000   18.5210000   26.1660000  
O 20.9650000   18.4610000   28.8560000  
H 20.6630000   16.1750000   30.0840000  
H 19.8260000   13.4510000   29.9400000  
H 19.5970000   11.5730000   29.2650000  
H 19.7150000   18.4390000   25.2880000  
C 18.9370000   16.3530000   24.9680000  
C 17.5710000   16.5220000   24.8210000  
C 16.9780000   16.6110000   23.6490000  
C 17.7090000   16.5510000   22.3990000  
C 19.0980000   16.3940000   22.5150000  
C 19.7040000   16.3120000   23.7610000  
C 16.5230000   16.7230000   25.8130000  
C 15.3220000   17.0340000   25.1390000  
N 15.6350000   16.9330000   23.7570000  
O 13.6590000   17.0130000   26.8490000  
C 13.9410000   17.2740000   25.5380000  
O 13.0380000   17.7010000   24.7790000  
O 19.9010000   16.4310000   21.4660000  
O 21.0010000   16.0440000   23.9130000  
H 16.6050000   16.6440000   26.9450000  
H 14.5140000   16.8330000   27.1740000  
H 14.9440000   17.0870000   22.9950000  
H 20.6710000   15.8390000   21.5980000  
H 21.0340000   15.8210000   24.8290000  
C 16.9610000   16.8610000   21.1330000  
C 17.2490000   17.9480000   20.2900000  
C 16.5340000   18.1850000   19.1520000  
C 15.5880000   17.3260000   18.6580000  
C 15.2320000   16.2630000   19.5370000  
C 15.8530000   15.9700000   20.7440000  
C 18.4620000   18.7360000   20.1850000  
C 18.4430000   19.4440000   19.0080000  
N 17.3070000   19.0350000   18.3220000  
O 20.5910000   20.3110000   19.3660000  
C 19.5010000   20.3700000   18.5900000  
O 19.4420000   21.1090000   17.6290000  
O 14.2750000   15.3890000   19.1110000  
O 15.4990000   14.8830000   21.5090000  
H 19.2220000   18.8020000   20.9370000  
H 20.3570000   19.5780000   19.9940000  
H 17.1480000   19.3400000   17.3000000  
H 14.0860000   15.4980000   18.1600000  
H 15.2980000   14.2210000   20.8510000  
C 15.1230000   17.4020000   17.2230000  
C 15.3190000   16.3590000   16.2670000  
C 14.9440000   16.4790000   14.9850000  
C 14.1730000   17.5500000   14.5160000  
C 13.8940000   18.5500000   15.4290000  
C 14.4610000   18.5560000   16.7230000  
C 15.9600000   15.0680000   16.2810000  
C 15.7560000   14.4310000   15.0450000  
N 15.2640000   15.4050000   14.1890000  
O 17.1100000   12.4480000   15.5550000  
C 16.3850000   13.1310000   14.6540000  
O 16.1870000   12.6780000   13.5400000  
O 13.1860000   19.6380000   15.0100000  
O 14.3200000   19.6860000   17.4220000  
H 16.5200000   14.6900000   17.0990000  
H 17.0740000   12.8880000   16.3970000  
H 15.2100000   15.4320000   13.1860000  
H 13.4510000   20.4050000   15.5550000  
H 14.6850000   19.4240000   18.2800000  
H 13.7700000   17.5330000   13.5070000  
