76
110 
C 10.9540000   17.1420000   25.3390000  
C 11.0130000   18.1710000   26.3970000  
C 12.1500000   18.8780000   26.6650000  
C 13.3550000   18.7290000   25.9680000  
C 13.3870000   17.7370000   24.9170000  
C 12.2410000   16.9970000   24.6050000  
C 12.3650000   19.9760000   27.5130000  
C 13.6880000   20.3040000   27.3060000  
N 14.3230000   19.5100000   26.3510000  
O 13.6180000   22.1990000   28.7720000  
C 14.3750000   21.4370000   27.9640000  
O 15.4960000   21.8070000   27.6720000  
O 12.2260000   16.0350000   23.6200000  
O  9.9510000   16.4890000   25.1690000  
H 10.0770000   18.2960000   26.9490000  
H 11.6820000   20.3990000   28.2550000  
H 12.7490000   21.7610000   28.8090000  
H 13.0530000   16.0410000   23.1160000  
C 14.6190000   17.5140000   24.1900000  
C 15.2370000   16.2210000   24.2170000  
C 16.1060000   15.8790000   23.2640000  
C 16.6110000   16.6950000   22.2230000  
C 16.0220000   17.9900000   22.1750000  
C 15.0330000   18.4260000   23.1070000  
C 14.9470000   15.0300000   24.9720000  
C 15.7430000   14.0260000   24.3960000  
N 16.5410000   14.5870000   23.3960000  
O 14.9040000   12.3940000   25.8910000  
C 15.5600000   12.6410000   24.7380000  
O 16.1270000   11.7890000   24.0670000  
O 16.4070000   18.8940000   21.1890000  
O 14.4880000   19.7010000   23.0460000  
H 14.0580000   14.8550000   25.6170000  
H 14.6040000   13.2840000   26.1630000  
H 17.3290000   14.2260000   22.9590000  
H 15.8200000   19.6490000   21.3390000  
H 14.1520000   19.8930000   24.0170000  
C 17.7260000   16.2690000   21.2340000  
C 17.3850000   16.0330000   19.8240000  
C 18.4360000   15.6710000   19.0140000  
C 19.8080000   15.4630000   19.3860000  
C 20.1190000   15.7290000   20.7550000  
C 19.1030000   16.1740000   21.6570000  
C 16.2810000   16.1990000   19.0070000  
C 16.5980000   15.7840000   17.7440000  
N 18.0030000   15.4780000   17.7420000  
O 14.3280000   15.7140000   16.8630000  
C 15.6520000   15.4920000   16.6230000  
O 16.0230000   15.0950000   15.5060000  
O 21.3810000   15.5240000   21.2620000  
O 19.5370000   16.7830000   22.8310000  
H 15.3280000   16.6960000   19.2470000  
H 14.1040000   15.6430000   17.7760000  
H 18.5190000   15.3430000   16.9110000  
H 21.8580000   14.7980000   20.8100000  
H 20.5000000   16.6900000   22.7130000  
C 20.8170000   14.8360000   18.5000000  
C 21.9890000   15.5080000   18.0920000  
C 23.0010000   14.8500000   17.4030000  
C 22.8540000   13.5330000   16.8640000  
C 21.6620000   12.7980000   17.2330000  
C 20.6980000   13.4580000   18.0880000  
C 22.5160000   16.8100000   18.3440000  
C 23.7740000   16.9030000   17.8320000  
N 24.0600000   15.6920000   17.2170000  
O 24.1000000   19.2030000   18.2230000  
C 24.7140000   18.0080000   17.8940000  
O 25.9010000   17.8330000   17.6730000  
O 21.4900000   11.5130000   16.8180000  
O 19.6590000   12.7100000   18.6500000  
H 21.9920000   17.5920000   18.8790000  
H 23.2320000   18.9390000   18.4410000  
H 24.9480000   15.4640000   16.7470000  
H 20.6540000   11.2740000   17.2450000  
H 19.1390000   13.3380000   19.1870000  
H 23.6260000   13.1310000   16.2440000  
