76
110 
C 10.1660000   14.1040000   20.8210000  
C  9.2610000   15.2880000   20.9630000  
C  9.8830000   16.4700000   21.1940000  
C 11.2390000   16.6580000   21.4150000  
C 12.1590000   15.5390000   21.3920000  
C 11.6230000   14.2910000   21.0320000  
C  9.3110000   17.7870000   21.3240000  
C 10.3670000   18.6120000   21.6420000  
N 11.6080000   17.9210000   21.6700000  
O  9.0680000   20.6070000   22.0310000  
C 10.2640000   20.0430000   21.8740000  
O 11.2390000   20.7070000   22.0030000  
O 12.4720000   13.1980000   20.9100000  
O  9.6560000   13.0100000   20.5470000  
H  8.2550000   15.2440000   20.6960000  
H  8.3020000   18.1060000   21.3770000  
H  8.4810000   19.8350000   21.7640000  
H 13.3370000   13.4630000   21.2080000  
C 13.6320000   15.7740000   21.5190000  
C 14.3630000   15.7330000   22.7600000  
C 15.6670000   16.1940000   22.7730000  
C 16.4050000   16.5370000   21.6630000  
C 15.7070000   16.4040000   20.3920000  
C 14.3270000   16.0940000   20.2950000  
C 13.9300000   15.4940000   24.1240000  
C 15.0590000   15.7880000   24.9520000  
N 16.1650000   16.1640000   24.1020000  
O 13.9290000   15.5790000   27.1000000  
C 15.0660000   15.8670000   26.3940000  
O 16.0880000   16.1830000   26.9750000  
O 16.4420000   16.4780000   19.3050000  
O 13.7230000   16.0600000   19.0750000  
H 13.0090000   15.1220000   24.5050000  
H 13.2850000   15.4090000   26.3610000  
H 17.0590000   16.5980000   24.3800000  
H 15.8120000   16.3650000   18.4950000  
H 12.7680000   15.7870000   19.1420000  
C 17.8560000   16.7840000   21.6810000  
C 18.8230000   15.7780000   21.7390000  
C 20.1280000   15.9780000   21.7440000  
C 20.6850000   17.2410000   21.7150000  
C 19.7580000   18.3010000   21.4760000  
C 18.3980000   18.0680000   21.5680000  
C 18.6840000   14.3650000   21.9640000  
C 19.9890000   13.8960000   22.2250000  
N 20.9270000   14.8910000   22.0100000  
O 19.2010000   11.7270000   22.4290000  
C 20.2770000   12.5190000   22.5810000  
O 21.3190000   12.1080000   23.0060000  
O 20.2410000   19.5940000   21.5850000  
O 17.5510000   19.1080000   21.5140000  
H 17.7320000   13.7990000   21.9550000  
H 18.6140000   12.2770000   21.8610000  
H 21.9070000   14.7610000   22.2860000  
H 21.1710000   19.4780000   21.7400000  
H 18.0760000   19.8600000   21.8800000  
C 22.1710000   17.3630000   21.8840000  
C 23.0360000   17.3780000   20.7850000  
C 24.3970000   17.4450000   20.8760000  
C 25.0130000   17.6570000   22.1230000  
C 24.2400000   17.5230000   23.2740000  
C 22.8370000   17.3720000   23.1450000  
C 22.6960000   17.3580000   19.3770000  
C 23.9030000   17.3670000   18.6650000  
N 24.8970000   17.5200000   19.5970000  
O 22.9120000   17.0080000   16.5660000  
C 24.0250000   17.3200000   17.1910000  
O 25.0720000   17.4290000   16.5730000  
O 24.8450000   17.3150000   24.4830000  
O 22.0910000   17.0480000   24.3020000  
H 21.6610000   17.3330000   18.9400000  
H 22.2260000   16.8860000   17.2620000  
H 25.8930000   17.5570000   19.3850000  
H 24.1510000   17.0020000   25.1000000  
H 21.1550000   16.8740000   23.9770000  
H 26.0600000   17.7540000   22.0870000  
