76
110 
C 10.2660000   17.8180000   23.8000000  
C 10.4760000   18.8400000   24.8570000  
C 11.7830000   19.0910000   25.3510000  
C 12.9120000   18.6400000   24.7210000  
C 12.7570000   17.7420000   23.5890000  
C 11.5150000   17.2650000   23.1940000  
C 12.2620000   19.7780000   26.5740000  
C 13.6380000   19.7700000   26.3430000  
N 14.0400000   18.9780000   25.2520000  
O 14.1870000   21.3630000   28.1550000  
C 14.5870000   20.5370000   27.1280000  
O 15.7630000   20.6510000   26.8750000  
O 11.3670000   16.2000000   22.3490000  
O  9.1490000   17.5180000   23.4750000  
H  9.6130000   19.3320000   25.2180000  
H 11.7140000   20.3690000   27.2960000  
H 13.2450000   21.3170000   28.1780000  
H 12.1160000   16.1430000   21.7490000  
C 13.9830000   17.3220000   22.9900000  
C 14.5300000   16.0720000   23.3990000  
C 15.7510000   15.6840000   23.0630000  
C 16.5340000   16.3630000   22.1840000  
C 15.9240000   17.5790000   21.6400000  
C 14.6480000   18.0770000   22.0240000  
C 14.1020000   15.1410000   24.3920000  
C 15.1540000   14.2550000   24.5910000  
N 16.2300000   14.6130000   23.7190000  
O 14.1340000   12.8580000   26.2060000  
C 15.2460000   13.0670000   25.4260000  
O 16.1220000   12.2850000   25.5170000  
O 16.5540000   18.1540000   20.5670000  
O 14.2480000   19.2740000   21.5460000  
H 13.0920000   15.0970000   24.8460000  
H 13.5680000   13.5890000   26.1580000  
H 17.1850000   14.2600000   23.5020000  
H 16.1870000   19.0510000   20.5050000  
H 13.5000000   19.4900000   22.0720000  
C 17.8420000   15.7570000   21.6900000  
C 18.0300000   15.3500000   20.3770000  
C 19.2600000   14.9350000   19.9790000  
C 20.4310000   15.0250000   20.7630000  
C 20.2450000   15.4520000   22.0860000  
C 18.9480000   15.7230000   22.5580000  
C 17.1830000   15.5000000   19.1500000  
C 17.9880000   15.0630000   18.0850000  
N 19.2650000   14.7590000   18.5950000  
O 16.3540000   15.7870000   16.4440000  
C 17.4510000   15.0550000   16.7290000  
O 17.9840000   14.4650000   15.8530000  
O 21.3000000   15.5500000   22.9160000  
O 18.7520000   16.0340000   23.8510000  
H 16.1490000   15.7720000   19.1690000  
H 16.0570000   16.0180000   17.2960000  
H 19.9970000   14.2930000   18.0870000  
H 22.1090000   15.3930000   22.3570000  
H 19.6180000   16.0020000   24.2600000  
C 21.7370000   14.9190000   20.0450000  
C 22.0960000   15.8940000   19.0430000  
C 23.2500000   15.8440000   18.3390000  
C 24.1750000   14.8280000   18.6090000  
C 23.9330000   13.9290000   19.6450000  
C 22.6840000   13.9100000   20.2520000  
C 21.3540000   17.0520000   18.6000000  
C 22.1100000   17.5100000   17.5000000  
N 23.3170000   16.8350000   17.3590000  
O 20.2480000   18.8080000   16.6100000  
C 21.5870000   18.4790000   16.5100000  
O 22.3360000   18.9850000   15.7050000  
O 24.7920000   12.8830000   19.8690000  
O 22.4280000   12.8920000   21.1850000  
H 20.3820000   17.4340000   18.9000000  
H 19.8800000   18.1620000   17.1810000  
H 24.0030000   16.9680000   16.6090000  
H 24.2580000   12.2530000   20.3780000  
H 21.4780000   12.8790000   21.3610000  
H 24.9940000   14.7860000   17.9310000  
