76
110 
C 12.4090000   19.4190000   26.8490000  
C 13.1600000   19.0680000   28.0860000  
C 14.4630000   18.6920000   28.0380000  
C 15.1570000   18.4180000   26.8880000  
C 14.4710000   18.5170000   25.6390000  
C 13.1430000   18.9450000   25.6350000  
C 15.3370000   18.4840000   29.1400000  
C 16.5030000   18.0290000   28.4900000  
N 16.3460000   18.0270000   27.1060000  
O 17.6070000   17.5320000   30.5380000  
C 17.7240000   17.4350000   29.1820000  
O 18.7260000   16.9280000   28.6290000  
O 12.4990000   19.2890000   24.4790000  
O 11.3650000   20.0500000   26.8370000  
H 12.7470000   19.4570000   28.9930000  
H 15.0860000   18.7300000   30.1800000  
H 16.7790000   18.0990000   30.6370000  
H 13.0380000   19.0510000   23.7480000  
C 15.1720000   17.9280000   24.4900000  
C 15.0580000   16.5410000   24.1150000  
C 15.7480000   16.0910000   23.0330000  
C 16.6900000   16.8540000   22.3170000  
C 16.8270000   18.1700000   22.6970000  
C 16.0870000   18.6640000   23.7850000  
C 14.4760000   15.4050000   24.8470000  
C 14.7170000   14.3570000   23.9190000  
N 15.5300000   14.7280000   22.8340000  
O 13.4920000   12.7720000   25.2040000  
C 14.2180000   12.9630000   24.0480000  
O 14.3210000   12.0780000   23.2390000  
O 17.6230000   19.0310000   21.9650000  
O 16.1700000   20.0150000   24.1000000  
H 13.8470000   15.4200000   25.7620000  
H 13.6130000   13.5850000   25.7550000  
H 15.8250000   14.1200000   22.0420000  
H 17.8000000   19.8480000   22.4290000  
H 15.5910000   20.1750000   24.8960000  
C 17.4500000   16.2980000   21.2000000  
C 16.8900000   16.2640000   19.8840000  
C 17.6590000   15.7520000   18.8380000  
C 18.9180000   15.1300000   18.8960000  
C 19.4390000   15.1630000   20.2320000  
C 18.7860000   15.7020000   21.3550000  
C 15.6860000   16.7720000   19.2020000  
C 15.8180000   16.5220000   17.8340000  
N 16.9990000   15.8070000   17.6390000  
O 13.8780000   17.7410000   17.0500000  
C 14.8340000   16.8970000   16.7400000  
O 14.9560000   16.4740000   15.6450000  
O 20.5900000   14.4430000   20.4680000  
O 19.4790000   15.7760000   22.5460000  
H 14.9990000   17.4820000   19.5840000  
H 13.9360000   17.9530000   17.9830000  
H 17.3870000   15.5540000   16.7310000  
H 20.8390000   13.9040000   19.7010000  
H 20.4070000   15.5590000   22.2470000  
C 19.7200000   14.5920000   17.7290000  
C 20.7780000   15.3640000   17.2570000  
C 21.3930000   15.0310000   16.0800000  
C 21.1040000   13.8610000   15.3310000  
C 20.0520000   13.0160000   15.8100000  
C 19.3520000   13.4870000   16.9910000  
C 21.4910000   16.4790000   17.7610000  
C 22.5240000   16.8070000   16.8540000  
N 22.4870000   15.8210000   15.8480000  
O 23.5790000   18.3870000   18.1880000  
C 23.5610000   17.8150000   17.0160000  
O 24.3480000   18.2570000   16.1820000  
O 19.7910000   11.8370000   15.2360000  
O 18.3280000   12.6300000   17.4630000  
H 21.3040000   16.9090000   18.7830000  
H 22.9950000   17.8040000   18.7200000  
H 23.2960000   15.6310000   15.1940000  
H 19.0600000   11.4200000   15.7560000  
H 17.9280000   13.0040000   18.2750000  
H 21.6830000   13.5920000   14.4740000  
