76
110 
C 19.0740000    9.1840000   22.6280000  
C 20.2480000    8.9690000   21.7000000  
C 20.6890000   10.0790000   20.9940000  
C 20.1220000   11.3320000   21.0340000  
C 19.0050000   11.5710000   21.9740000  
C 18.5000000   10.5290000   22.6870000  
C 21.8270000   10.2320000   20.1280000  
C 21.8070000   11.5520000   19.7300000  
N 20.7820000   12.2690000   20.3650000  
O 23.9430000   11.3750000   18.4950000  
C 22.8140000   12.1350000   18.7790000  
O 22.6550000   13.1900000   18.2550000  
O 17.5590000   10.7010000   23.6270000  
O 18.7030000    8.2400000   23.3180000  
H 20.6910000    8.0010000   21.5270000  
H 22.5130000    9.4790000   19.8160000  
H 24.0130000   10.6490000   19.1540000  
H 17.1470000   11.6030000   23.4320000  
C 18.3910000   12.9280000   22.0760000  
C 17.2130000   13.2350000   21.3550000  
C 16.8620000   14.5300000   21.3570000  
C 17.5600000   15.5790000   21.9700000  
C 18.5820000   15.2220000   22.8260000  
C 19.0690000   13.9030000   22.8160000  
C 16.4340000   12.4490000   20.4300000  
C 15.5260000   13.3960000   19.9040000  
N 15.7680000   14.6150000   20.5380000  
O 14.0290000   11.8330000   18.8450000  
C 14.3120000   13.1580000   19.0360000  
O 13.7100000   14.0570000   18.5310000  
O 19.2050000   16.1910000   23.6030000  
O 20.1730000   13.5680000   23.6060000  
H 16.6060000   11.4040000   20.1050000  
H 14.9010000   11.4800000   19.1740000  
H 15.2210000   15.4060000   20.2630000  
H 19.9100000   15.7150000   24.0900000  
H 20.2270000   12.6120000   23.4720000  
C 17.0460000   16.9590000   21.8280000  
C 16.4530000   17.6280000   22.9210000  
C 15.8770000   18.8670000   22.7570000  
C 15.7080000   19.6020000   21.5910000  
C 16.2460000   18.9370000   20.4450000  
C 16.9780000   17.6980000   20.5880000  
C 16.2090000   17.2290000   24.2830000  
C 15.4950000   18.2620000   24.8940000  
N 15.3600000   19.2580000   23.9390000  
O 14.8950000   17.1510000   26.9590000  
C 14.7970000   18.3180000   26.2170000  
O 14.1940000   19.2540000   26.6710000  
O 16.1380000   19.5300000   19.2390000  
O 17.6370000   17.1430000   19.5300000  
H 16.4600000   16.2320000   24.5970000  
H 15.2360000   16.5080000   26.2800000  
H 14.8480000   20.0720000   24.1100000  
H 16.0870000   20.4920000   19.4840000  
H 17.9960000   16.2880000   19.8580000  
C 14.9940000   20.9000000   21.5540000  
C 15.7280000   22.0490000   21.7720000  
C 15.1850000   23.2690000   21.7350000  
C 13.8850000   23.5310000   21.3540000  
C 13.0450000   22.4170000   21.1630000  
C 13.6020000   21.0840000   21.3430000  
C 17.1650000   22.2190000   22.0080000  
C 17.3910000   23.5670000   22.0230000  
N 16.1270000   24.2450000   21.8190000  
O 19.6350000   23.5200000   22.6140000  
C 18.6850000   24.2860000   22.1850000  
O 18.7700000   25.4690000   22.1260000  
O 11.6680000   22.5750000   21.0610000  
O 12.7900000   20.0680000   21.3160000  
H 17.9470000   21.4940000   22.0930000  
H 19.3080000   22.5950000   22.6100000  
H 15.9540000   25.2560000   21.6800000  
H 11.2440000   21.7230000   21.3500000  
H 13.2370000   19.2320000   21.2330000  
H 13.4540000   24.5040000   21.3360000  
