76
110 
C 14.7940000    9.7650000   19.9330000  
C 14.6060000    9.5900000   18.4540000  
C 14.7770000   10.7090000   17.6370000  
C 15.1790000   11.9380000   18.1130000  
C 15.4780000   12.1090000   19.5020000  
C 15.2350000   11.1080000   20.3810000  
C 14.5780000   10.8320000   16.2780000  
C 14.8190000   12.1530000   15.9670000  
N 15.2730000   12.8240000   17.1170000  
O 14.6830000   11.8880000   13.5880000  
C 14.9200000   12.7290000   14.6470000  
O 15.1090000   13.8840000   14.4670000  
O 15.5760000   11.1580000   21.6870000  
O 14.4700000    8.8530000   20.6970000  
H 14.4230000    8.5580000   18.0740000  
H 14.2950000   10.0200000   15.5920000  
H 14.2610000   11.0960000   13.9210000  
H 16.0570000   11.9860000   21.9900000  
C 15.9600000   13.4490000   20.0520000  
C 15.1520000   14.2480000   20.8490000  
C 15.6010000   15.4850000   21.2140000  
C 16.9450000   15.9520000   21.1380000  
C 17.8230000   15.1190000   20.4250000  
C 17.2740000   13.9190000   19.8000000  
C 13.8300000   14.0730000   21.2630000  
C 13.4970000   15.2450000   21.9160000  
N 14.5960000   16.1020000   21.9420000  
O 11.2940000   14.5240000   22.5470000  
C 12.2460000   15.4500000   22.6900000  
O 11.9680000   16.4140000   23.4270000  
O 19.1470000   15.4330000   20.2430000  
O 18.1170000   12.9930000   19.2150000  
H 13.2440000   13.1430000   21.0760000  
H 11.7460000   13.8770000   22.0020000  
H 14.7130000   16.9440000   22.5620000  
H 19.4550000   14.9320000   19.4750000  
H 17.6220000   12.1440000   19.0970000  
C 17.5570000   17.1480000   21.8610000  
C 17.3940000   17.3900000   23.2400000  
C 17.9590000   18.5300000   23.7550000  
C 18.6570000   19.5390000   23.0940000  
C 18.5240000   19.4290000   21.7170000  
C 18.0010000   18.2930000   21.0730000  
C 16.8910000   16.6610000   24.3670000  
C 17.4170000   17.2960000   25.5400000  
N 17.8870000   18.5110000   25.1190000  
O 17.1740000   15.5680000   27.0730000  
C 17.5060000   16.8470000   26.9400000  
O 17.8750000   17.4800000   27.8510000  
O 19.0770000   20.4340000   20.9790000  
O 17.9900000   18.2670000   19.6860000  
H 16.4220000   15.6700000   24.2620000  
H 17.1760000   15.2280000   26.1190000  
H 18.1680000   19.2070000   25.7280000  
H 18.8330000   21.2500000   21.4030000  
H 18.4370000   19.0960000   19.3550000  
C 19.0890000   20.8360000   23.7450000  
C 20.4260000   21.0170000   23.8860000  
C 20.9630000   22.1330000   24.5370000  
C 20.1550000   23.1210000   25.1690000  
C 18.7610000   22.8910000   25.1320000  
C 18.2170000   21.7380000   24.4790000  
C 21.5360000   20.2110000   23.4310000  
C 22.6970000   20.9490000   23.6940000  
N 22.3000000   22.1040000   24.3680000  
O 24.2630000   19.4860000   22.8380000  
C 24.1310000   20.6410000   23.4540000  
O 25.0840000   21.3700000   23.6790000  
O 17.9720000   23.8730000   25.6770000  
O 16.8360000   21.5460000   24.4970000  
H 21.5100000   19.1890000   23.0670000  
H 23.3380000   19.2540000   22.6320000  
H 22.9380000   22.7770000   24.7840000  
H 17.1240000   23.7400000   25.2580000  
H 16.6470000   20.6650000   24.0890000  
H 20.5520000   24.0370000   25.6430000  
