76
110 
C 13.6950000   10.6590000   19.3150000  
C 12.8710000   10.9020000   18.1110000  
C 12.9100000   12.2030000   17.6410000  
C 13.5600000   13.2800000   18.1200000  
C 14.4540000   13.1330000   19.2240000  
C 14.4710000   11.8720000   19.8280000  
C 12.0000000   12.7210000   16.6560000  
C 12.3420000   14.0390000   16.5650000  
N 13.2140000   14.3900000   17.5390000  
O 10.9570000   14.3850000   14.5960000  
C 11.7120000   14.9740000   15.5800000  
O 11.9010000   16.1930000   15.5980000  
O 15.2030000   11.6700000   21.0050000  
O 13.6850000    9.5190000   19.8210000  
H 12.1300000   10.2130000   17.6790000  
H 11.2330000   12.2010000   16.0920000  
H 11.0410000   13.4200000   14.5830000  
H 15.1520000   12.5340000   21.5040000  
C 15.0870000   14.3150000   19.8910000  
C 14.7160000   14.7090000   21.1880000  
C 15.5100000   15.5040000   21.9210000  
C 16.5940000   16.2480000   21.4530000  
C 17.0030000   15.9330000   20.0760000  
C 16.2530000   14.9410000   19.3670000  
C 13.5660000   14.3490000   22.0020000  
C 13.7640000   15.0690000   23.2310000  
N 14.9460000   15.7900000   23.1220000  
O 11.7490000   14.3630000   24.4220000  
C 12.9290000   15.0640000   24.4280000  
O 13.1710000   15.6680000   25.4560000  
O 18.0710000   16.5630000   19.5060000  
O 16.4830000   14.5730000   18.0770000  
H 12.7480000   13.7670000   21.6830000  
H 11.7330000   13.8660000   23.5400000  
H 15.1660000   16.6780000   23.6270000  
H 18.1640000   16.1140000   18.6450000  
H 15.6140000   14.1920000   17.8730000  
C 17.4030000   17.2260000   22.2030000  
C 18.2790000   16.7970000   23.2330000  
C 19.0670000   17.6940000   23.9150000  
C 19.2340000   19.0270000   23.6490000  
C 18.4700000   19.4490000   22.5380000  
C 17.4710000   18.6050000   21.8730000  
C 18.5600000   15.5230000   23.8600000  
C 19.5040000   15.6580000   24.8430000  
N 19.7310000   17.0610000   24.9220000  
O 19.7050000   13.4110000   25.3510000  
C 19.9920000   14.6520000   25.7250000  
O 20.6860000   14.8550000   26.6750000  
O 18.6700000   20.7210000   22.1270000  
O 16.4870000   19.0540000   20.9890000  
H 18.0490000   14.6220000   23.6070000  
H 19.2940000   13.5570000   24.5280000  
H 20.3850000   17.4410000   25.5610000  
H 19.4820000   21.0770000   22.6120000  
H 16.8090000   19.9300000   20.6670000  
C 20.3140000   19.8710000   24.2490000  
C 21.4220000   20.2500000   23.4380000  
C 22.3920000   21.0420000   23.9790000  
C 22.3430000   21.5220000   25.3150000  
C 21.3290000   21.0870000   26.1610000  
C 20.2970000   20.2670000   25.6660000  
C 21.8220000   19.9730000   22.0950000  
C 23.0190000   20.6140000   21.8450000  
N 23.3740000   21.2880000   23.0120000  
O 23.3990000   19.9900000   19.5510000  
C 23.8410000   20.6350000   20.6680000  
O 25.0190000   21.0490000   20.7020000  
O 21.3210000   21.4450000   27.4360000  
O 19.3290000   19.6550000   26.4380000  
H 21.2750000   19.5020000   21.2790000  
H 22.5510000   19.6750000   19.8580000  
H 24.3410000   21.4590000   23.2510000  
H 20.7040000   20.9040000   27.9470000  
H 18.5620000   19.4400000   25.8610000  
H 23.1480000   22.1560000   25.7320000  
