76
110 
C  9.9990000   17.4320000   22.1600000  
C  9.4550000   17.7170000   23.5310000  
C 10.3760000   17.5240000   24.5900000  
C 11.7390000   17.2440000   24.4530000  
C 12.2890000   17.1990000   23.1300000  
C 11.4610000   17.3000000   22.0330000  
C 10.1890000   17.6530000   26.0230000  
C 11.4660000   17.4550000   26.5900000  
N 12.3750000   17.1640000   25.5830000  
O 10.5800000   17.7260000   28.8010000  
C 11.6480000   17.3910000   28.0160000  
O 12.7580000   17.1260000   28.4730000  
O 11.9450000   17.4050000   20.7520000  
O  9.2040000   17.4240000   21.2500000  
H  8.3000000   17.9130000   23.5390000  
H  9.1790000   17.8490000   26.5250000  
H  9.8110000   17.5270000   28.2740000  
H 12.9230000   17.2260000   20.8130000  
C 13.7330000   17.1560000   22.9430000  
C 14.3370000   15.9830000   22.5410000  
C 15.6730000   15.9300000   22.2240000  
C 16.6140000   16.9710000   22.2470000  
C 15.9680000   18.2140000   22.6120000  
C 14.6340000   18.2840000   23.0550000  
C 13.7970000   14.6310000   22.3220000  
C 14.8130000   13.8910000   21.7100000  
N 15.9690000   14.6710000   21.7270000  
O 13.4300000   12.0190000   21.3830000  
C 14.6970000   12.4660000   21.2540000  
O 15.5730000   11.7090000   20.8410000  
O 16.6710000   19.3570000   22.4590000  
O 14.2400000   19.5270000   23.5160000  
H 12.8120000   14.3380000   22.5410000  
H 12.9640000   12.8330000   21.4750000  
H 16.7470000   14.4170000   21.1370000  
H 16.4150000   20.0680000   23.0870000  
H 13.3180000   19.4620000   23.9070000  
C 18.0010000   16.7970000   21.6430000  
C 18.3090000   16.1930000   20.3850000  
C 19.6280000   16.0000000   19.9710000  
C 20.7780000   16.1770000   20.7780000  
C 20.4070000   16.6840000   22.0910000  
C 19.0870000   16.9900000   22.4840000  
C 17.4680000   15.8260000   19.2470000  
C 18.3340000   15.4990000   18.2220000  
N 19.6780000   15.4970000   18.6840000  
O 16.6000000   15.1360000   16.6980000  
C 17.9590000   15.1300000   16.8920000  
O 18.7590000   14.8440000   16.0260000  
O 21.3170000   16.7210000   23.0890000  
O 18.8460000   17.5900000   23.6850000  
H 16.3990000   15.9810000   19.1440000  
H 16.1530000   15.0400000   17.5040000  
H 20.4440000   15.1920000   18.1650000  
H 22.2000000   16.7760000   22.6720000  
H 18.0250000   18.1090000   23.7300000  
C 22.1090000   15.7340000   20.4010000  
C 23.1590000   16.6670000   20.3230000  
C 24.4240000   16.2160000   20.0070000  
C 24.7110000   14.8630000   19.8380000  
C 23.7230000   13.8920000   20.0730000  
C 22.4170000   14.3250000   20.3670000  
C 23.2200000   18.1480000   20.2720000  
C 24.5290000   18.4970000   19.9530000  
N 25.2520000   17.2770000   19.7200000  
O 24.1480000   20.8050000   20.3030000  
C 25.0580000   19.9250000   19.8500000  
O 26.0960000   20.2900000   19.4030000  
O 23.9510000   12.5200000   19.8620000  
O 21.4600000   13.4090000   20.6160000  
H 22.4850000   18.8870000   20.4910000  
H 23.6310000   20.2570000   20.9090000  
H 26.2140000   17.1770000   19.5130000  
H 23.1490000   11.9730000   19.8500000  
H 20.6080000   13.8110000   20.7190000  
H 25.6700000   14.5030000   19.4340000  
