76
110 
C 11.9120000   12.2130000   18.5400000  
C 10.7040000   13.0440000   18.6000000  
C 10.7210000   14.3360000   19.0190000  
C 11.8510000   15.0080000   19.4160000  
C 13.1100000   14.2910000   19.4320000  
C 13.1470000   13.0070000   19.0060000  
C  9.6460000   15.1380000   19.2380000  
C 10.1830000   16.2550000   19.9250000  
N 11.5900000   16.1840000   19.9380000  
O  8.1090000   17.3680000   20.3660000  
C  9.4440000   17.4580000   20.4460000  
O  9.9880000   18.4800000   20.8470000  
O 14.2720000   12.2930000   19.0410000  
O 11.9220000   11.0120000   18.1790000  
H  9.8350000   12.5110000   18.2700000  
H  8.5960000   14.8290000   19.1510000  
H  7.9340000   16.5240000   19.9360000  
H 14.8530000   12.9430000   19.3050000  
C 14.3460000   14.9310000   19.8530000  
C 14.7160000   14.7880000   21.2050000  
C 15.7240000   15.4480000   21.7780000  
C 16.7240000   16.2200000   21.0530000  
C 16.3800000   16.4190000   19.6540000  
C 15.1970000   15.7780000   19.1190000  
C 14.1020000   13.9960000   22.2480000  
C 14.8310000   14.2510000   23.4210000  
N 15.8570000   15.1300000   23.1310000  
O 13.3660000   13.1310000   24.9460000  
C 14.6000000   13.6820000   24.7930000  
O 15.3660000   13.7570000   25.6960000  
O 17.0950000   17.2980000   18.8770000  
O 14.8450000   15.9590000   17.8400000  
H 13.2440000   13.3580000   22.1330000  
H 13.0460000   13.2370000   24.0920000  
H 16.4320000   15.4990000   23.7990000  
H 16.5570000   17.4530000   18.0990000  
H 14.3050000   15.2190000   17.5820000  
C 17.8840000   16.8830000   21.8100000  
C 18.8390000   16.1090000   22.5270000  
C 19.9800000   16.7580000   22.9540000  
C 20.1600000   18.1920000   23.0680000  
C 19.1230000   18.9310000   22.4440000  
C 18.0160000   18.3240000   21.7830000  
C 19.0620000   14.6800000   22.6430000  
C 20.3640000   14.6060000   23.2210000  
N 20.8970000   15.8910000   23.4950000  
O 20.4950000   12.2170000   23.3080000  
C 21.1060000   13.3420000   23.6290000  
O 22.0830000   13.2960000   24.3540000  
O 19.2400000   20.3090000   22.5360000  
O 17.0210000   19.1750000   21.4210000  
H 18.3980000   13.8190000   22.5220000  
H 19.8060000   12.4920000   22.7140000  
H 21.8620000   16.0640000   23.7310000  
H 20.1390000   20.6490000   22.5550000  
H 16.2840000   18.5450000   21.2330000  
C 21.2820000   18.8920000   23.6700000  
C 22.2330000   19.4630000   22.8300000  
C 23.3110000   20.1270000   23.3450000  
C 23.5800000   20.2000000   24.7250000  
C 22.6480000   19.4950000   25.5610000  
C 21.5190000   18.8870000   25.0550000  
C 22.3530000   19.4570000   21.4260000  
C 23.5090000   20.2450000   21.1720000  
N 24.0850000   20.5870000   22.3410000  
O 23.3500000   20.0750000   18.8320000  
C 24.1650000   20.4100000   19.8010000  
O 25.3120000   20.8680000   19.6060000  
O 22.9730000   19.3910000   26.8690000  
O 20.6820000   18.2120000   25.9090000  
H 21.7310000   18.9550000   20.7500000  
H 22.4970000   19.7510000   19.1610000  
H 24.9770000   21.0170000   22.4240000  
H 22.5030000   18.6040000   27.2250000  
H 20.0510000   17.7960000   25.3490000  
H 24.4560000   20.7050000   25.0730000  
