76
110 
C 12.4350000   15.4890000   27.2960000  
C 12.7010000   16.6470000   28.2250000  
C 13.3860000   17.7730000   27.7970000  
C 13.9870000   17.7960000   26.5230000  
C 13.8550000   16.7150000   25.6270000  
C 13.1120000   15.5680000   25.9100000  
C 13.9410000   18.8480000   28.5230000  
C 14.7110000   19.5520000   27.6420000  
N 14.7830000   18.9070000   26.3990000  
O 15.4020000   21.2020000   29.2950000  
C 15.3110000   20.8660000   27.9660000  
O 15.8730000   21.5890000   27.1630000  
O 12.8940000   14.5020000   25.1390000  
O 11.7110000   14.5630000   27.5720000  
H 12.4660000   16.5720000   29.2970000  
H 13.8160000   19.1060000   29.5870000  
H 15.0500000   20.4910000   29.8040000  
H 13.3120000   14.7140000   24.3140000  
C 14.6930000   16.6750000   24.4620000  
C 15.8410000   15.8630000   24.3410000  
C 16.6500000   15.9400000   23.3150000  
C 16.5610000   16.8580000   22.2230000  
C 15.4620000   17.7410000   22.2790000  
C 14.5240000   17.6230000   23.3690000  
C 16.3980000   15.0550000   25.3480000  
C 17.5950000   14.5620000   24.7720000  
N 17.7180000   15.0780000   23.4620000  
O 18.2530000   13.4460000   26.6770000  
C 18.6010000   13.7940000   25.4170000  
O 19.7330000   13.5170000   24.9990000  
O 15.2500000   18.6140000   21.2260000  
O 13.4880000   18.5290000   23.3960000  
H 15.9530000   14.7240000   26.3020000  
H 17.3340000   13.7510000   26.8380000  
H 18.6670000   15.1670000   22.9960000  
H 14.4600000   19.1640000   21.4300000  
H 13.0100000   18.4590000   24.2020000  
C 17.6380000   16.7780000   21.1170000  
C 17.5780000   15.6870000   20.1930000  
C 18.5320000   15.6560000   19.2390000  
C 19.6640000   16.5200000   19.1520000  
C 19.6910000   17.5940000   20.0680000  
C 18.6960000   17.7430000   21.0650000  
C 16.5880000   14.6670000   19.8760000  
C 17.1340000   13.9720000   18.8160000  
N 18.3470000   14.6110000   18.4090000  
O 15.3130000   12.4360000   18.6700000  
C 16.4460000   12.8890000   18.1290000  
O 16.9040000   12.3540000   17.1310000  
O 20.7210000   18.4950000   20.0400000  
O 18.7130000   18.8490000   21.7860000  
H 15.5620000   14.5950000   20.0980000  
H 15.1930000   12.8660000   19.5290000  
H 18.8630000   14.4260000   17.5520000  
H 20.4290000   19.1470000   20.7440000  
H 17.7810000   19.0510000   22.1250000  
C 20.7160000   16.3810000   18.1890000  
C 20.3220000   16.6240000   16.8370000  
C 21.1310000   16.2060000   15.8030000  
C 22.3770000   15.6160000   16.0600000  
C 22.7810000   15.4310000   17.4040000  
C 21.9720000   15.7470000   18.4520000  
C 19.1100000   17.1870000   16.2780000  
C 19.2690000   17.0910000   14.8750000  
N 20.4900000   16.4150000   14.6220000  
O 17.2950000   18.3790000   14.5730000  
C 18.2510000   17.6430000   14.0020000  
O 18.2430000   17.4160000   12.7850000  
O 23.9730000   14.7850000   17.5790000  
O 22.4300000   15.4670000   19.7310000  
H 18.2700000   17.6500000   16.7970000  
H 17.5060000   18.3110000   15.4820000  
H 20.8720000   16.2360000   13.7070000  
H 24.0250000   14.3910000   18.4720000  
H 21.7590000   15.6390000   20.3810000  
H 22.9660000   15.1960000   15.2670000  
