76
110 
C 21.0170000   11.1160000   25.1400000  
C 21.7090000   10.2620000   24.1350000  
C 21.4490000   10.4000000   22.7910000  
C 20.6140000   11.3810000   22.2950000  
C 19.9640000   12.3010000   23.1800000  
C 20.1250000   12.1940000   24.5290000  
C 21.9800000    9.7100000   21.6850000  
C 21.4870000   10.3710000   20.5920000  
N 20.6530000   11.4310000   20.9530000  
O 22.5540000    9.0130000   18.9580000  
C 21.7630000   10.0370000   19.1880000  
O 21.2780000   10.5820000   18.2340000  
O 19.6270000   13.0390000   25.4790000  
O 21.2160000   11.0780000   26.3480000  
H 22.4540000    9.5670000   24.5790000  
H 22.6160000    8.8560000   21.6170000  
H 22.9050000    8.6640000   19.8090000  
H 19.3360000   13.8710000   24.9570000  
C 19.2350000   13.4170000   22.5650000  
C 17.8490000   13.4530000   22.8080000  
C 17.1920000   14.5330000   22.3770000  
C 17.7500000   15.6850000   21.7730000  
C 19.1370000   15.6670000   21.5770000  
C 19.9060000   14.5060000   21.9730000  
C 16.9860000   12.6010000   23.6150000  
C 15.7670000   13.3590000   23.6820000  
N 15.9220000   14.5140000   22.8530000  
O 14.5210000   11.8550000   25.1640000  
C 14.5030000   12.9660000   24.3760000  
O 13.5610000   13.7470000   24.3320000  
O 19.9150000   16.6010000   20.8480000  
O 21.2770000   14.5420000   21.8680000  
H 17.2270000   11.6040000   23.9820000  
H 15.4170000   11.4910000   25.0860000  
H 15.2750000   15.2590000   22.8280000  
H 20.8090000   16.5910000   21.3130000  
H 21.5360000   13.6610000   22.1510000  
C 16.8920000   16.8680000   21.3290000  
C 16.2880000   17.7700000   22.2100000  
C 15.5950000   18.8750000   21.7370000  
C 15.2870000   19.1620000   20.4360000  
C 15.8070000   18.1950000   19.5120000  
C 16.5560000   17.0210000   19.9790000  
C 16.4510000   17.9790000   23.6000000  
C 16.0020000   19.2320000   23.9520000  
N 15.4420000   19.7780000   22.7880000  
O 16.4610000   19.1810000   26.4000000  
C 15.9100000   19.8240000   25.3440000  
O 15.3520000   20.9020000   25.4800000  
O 15.5110000   18.3180000   18.1630000  
O 17.1140000   16.2070000   19.0500000  
H 17.0380000   17.2580000   24.2000000  
H 16.8130000   18.4010000   25.9820000  
H 14.9850000   20.6920000   22.8430000  
H 15.0540000   19.1390000   17.8740000  
H 17.8900000   15.8750000   19.4210000  
C 14.3300000   20.1920000   19.9870000  
C 14.7170000   21.5980000   19.9680000  
C 13.9120000   22.5360000   19.3460000  
C 12.7880000   22.2370000   18.5900000  
C 12.4400000   20.8380000   18.5140000  
C 13.1960000   19.8740000   19.1800000  
C 15.8220000   22.3900000   20.3920000  
C 15.6220000   23.7080000   20.0810000  
N 14.4350000   23.8190000   19.4260000  
O 17.8170000   24.3770000   20.8500000  
C 16.6380000   24.7990000   20.2570000  
O 16.5940000   25.9330000   19.9170000  
O 11.3870000   20.4470000   17.7900000  
O 12.6920000   18.5490000   19.1710000  
H 16.5940000   22.0450000   21.0380000  
H 17.7520000   23.4020000   20.9470000  
H 14.0610000   24.6910000   19.0500000  
H 11.2760000   19.4640000   17.8900000  
H 13.2320000   17.9670000   19.6450000  
H 12.2110000   22.9660000   18.0610000  
