76
110 
C 18.3610000    9.0760000   20.1550000  
C 19.3470000    8.7330000   21.1690000  
C 19.6790000    9.6200000   22.1400000  
C 19.1190000   10.8990000   22.2450000  
C 18.0500000   11.2320000   21.3540000  
C 17.6720000   10.4270000   20.3190000  
C 20.8100000    9.5830000   23.0380000  
C 20.7980000   10.8610000   23.5810000  
N 19.7190000   11.6400000   23.0850000  
O 22.8790000   10.3940000   24.6430000  
C 21.9220000   11.3360000   24.4260000  
O 21.9810000   12.4400000   24.8670000  
O 16.7800000   10.7770000   19.3720000  
O 18.1370000    8.3010000   19.2390000  
H 19.9280000    7.8440000   21.0460000  
H 21.5530000    8.8190000   23.1300000  
H 22.5000000    9.5050000   24.4990000  
H 16.3980000   11.6690000   19.5920000  
C 17.5840000   12.6430000   21.3830000  
C 18.1060000   13.6000000   20.4680000  
C 17.8130000   14.9010000   20.7010000  
C 16.9670000   15.3810000   21.7220000  
C 16.3680000   14.4590000   22.5050000  
C 16.7170000   13.1000000   22.4040000  
C 19.1060000   13.5760000   19.5500000  
C 19.3280000   14.8660000   19.1500000  
N 18.4770000   15.6920000   19.8550000  
O 21.0930000   14.4190000   17.6460000  
C 20.3690000   15.3620000   18.2100000  
O 20.6480000   16.5110000   18.0080000  
O 15.7660000   14.8640000   23.7260000  
O 16.1470000   12.2570000   23.3370000  
H 19.6570000   12.6850000   19.2320000  
H 20.5650000   13.6050000   17.7750000  
H 18.4980000   16.7470000   19.8010000  
H 15.3820000   14.0300000   24.2110000  
H 16.6450000   11.4160000   23.2380000  
C 16.8520000   16.8680000   21.9290000  
C 16.0670000   17.6730000   21.1110000  
C 15.9770000   18.9720000   21.3500000  
C 16.6630000   19.7250000   22.3670000  
C 17.4120000   18.9430000   23.2640000  
C 17.5030000   17.5160000   23.0730000  
C 15.2850000   17.3160000   19.9600000  
C 14.7970000   18.5280000   19.5140000  
N 15.2460000   19.5290000   20.3280000  
O 13.3680000   17.6240000   17.8930000  
C 13.8620000   18.7560000   18.4720000  
O 13.4780000   19.8910000   18.1180000  
O 18.1360000   19.4830000   24.2690000  
O 18.3380000   16.8130000   23.8580000  
H 15.0580000   16.3110000   19.6540000  
H 13.8700000   16.8660000   18.2510000  
H 15.0280000   20.5050000   20.1550000  
H 18.7190000   18.7430000   24.5920000  
H 18.0840000   15.8470000   23.7170000  
C 16.5690000   21.1600000   22.5420000  
C 15.3850000   21.8370000   22.8950000  
C 15.3990000   23.1820000   23.2520000  
C 16.5590000   23.9480000   23.3390000  
C 17.6970000   23.3090000   22.8380000  
C 17.8060000   21.9410000   22.4510000  
C 14.0150000   21.4660000   23.0400000  
C 13.2750000   22.5660000   23.4920000  
N 14.1800000   23.6030000   23.6660000  
O 11.1950000   21.5390000   23.1750000  
C 11.8240000   22.6290000   23.6450000  
O 11.2370000   23.5990000   24.1270000  
O 18.8100000   24.0990000   22.5520000  
O 18.9720000   21.4660000   21.9950000  
H 13.6040000   20.4730000   22.7140000  
H 11.8690000   21.0900000   22.6550000  
H 13.9310000   24.5510000   23.7210000  
H 19.3950000   23.5040000   22.0290000  
H 19.0000000   20.4940000   22.1350000  
H 16.4650000   24.9770000   23.5550000  
