76
110 
C 10.7060000   14.6840000   25.0270000  
C  9.8140000   14.3320000   23.8600000  
C 10.2060000   14.1820000   22.5810000  
C 11.5000000   14.6040000   22.2120000  
C 12.4950000   14.9360000   23.2150000  
C 12.0850000   15.1530000   24.5450000  
C  9.5660000   13.8660000   21.3710000  
C 10.4910000   14.1260000   20.3570000  
N 11.7240000   14.5250000   20.9080000  
O  8.9530000   13.9170000   18.6250000  
C 10.2540000   14.0700000   18.9200000  
O 11.1180000   14.0560000   18.0880000  
O 12.9110000   15.3130000   25.5850000  
O 10.3460000   14.8010000   26.1760000  
H  8.7690000   14.1710000   24.1600000  
H  8.5300000   13.5220000   21.1520000  
H  8.5260000   13.8130000   19.4540000  
H 13.6690000   15.6170000   25.0770000  
C 13.9140000   15.2170000   22.8560000  
C 14.4650000   16.4810000   22.9270000  
C 15.7510000   16.7240000   22.5180000  
C 16.5510000   15.7320000   21.9040000  
C 16.0750000   14.4140000   21.8830000  
C 14.7880000   14.1160000   22.3880000  
C 13.8810000   17.7470000   23.2940000  
C 14.8760000   18.6990000   23.1010000  
N 16.0520000   18.0520000   22.5480000  
O 13.5730000   20.5540000   23.7050000  
C 14.6730000   20.1210000   23.0990000  
O 15.4630000   20.9250000   22.6910000  
O 16.8590000   13.4650000   21.2790000  
O 14.3500000   12.8200000   22.3550000  
H 12.8050000   17.9360000   23.5180000  
H 13.1020000   19.7520000   23.9700000  
H 16.9570000   18.5310000   22.4080000  
H 16.5590000   12.6700000   21.6480000  
H 13.3680000   12.8470000   22.6830000  
C 17.9370000   16.0770000   21.3770000  
C 18.8590000   16.5870000   22.2290000  
C 20.0180000   17.1030000   21.7050000  
C 20.3660000   17.1490000   20.3290000  
C 19.4070000   16.5760000   19.4630000  
C 18.2310000   15.9750000   20.0070000  
C 18.8280000   16.9960000   23.6340000  
C 20.0370000   17.6930000   23.7860000  
N 20.7270000   17.8150000   22.5940000  
O 19.7440000   17.8970000   26.1310000  
C 20.4730000   18.2630000   25.0960000  
O 21.5210000   18.8480000   25.1830000  
O 19.6180000   16.4350000   18.1220000  
O 17.2670000   15.4390000   19.1160000  
H 18.1310000   16.8470000   24.4330000  
H 18.9690000   17.3650000   25.8020000  
H 21.6220000   18.1630000   22.4450000  
H 19.2170000   15.6690000   17.6500000  
H 16.5480000   14.9620000   19.5800000  
C 21.5640000   17.7720000   19.8860000  
C 22.8630000   17.3270000   20.2810000  
C 23.9170000   18.1140000   19.9820000  
C 23.7840000   19.2960000   19.2360000  
C 22.5400000   19.7380000   18.7970000  
C 21.4280000   18.9920000   19.1580000  
C 23.2710000   16.1450000   20.8910000  
C 24.6370000   16.1480000   20.7800000  
N 25.0140000   17.4580000   20.4010000  
O 24.7760000   13.8700000   21.5820000  
C 25.5140000   14.9720000   21.2010000  
O 26.7180000   14.9780000   21.1950000  
O 22.5060000   20.8880000   18.0790000  
O 20.1370000   19.5170000   18.9010000  
H 22.5860000   15.3290000   21.1820000  
H 23.8750000   14.0390000   21.2260000  
H 25.9990000   17.7050000   20.3550000  
H 21.5430000   21.0370000   17.9980000  
H 19.4610000   18.7970000   18.9330000  
H 24.6300000   19.8610000   18.9550000  
