76
110 
C 18.6010000   10.3570000   18.2160000  
C 17.6450000    9.2780000   18.5560000  
C 16.4580000    9.6080000   19.1830000  
C 16.1100000   10.9080000   19.6180000  
C 17.1180000   11.9230000   19.4940000  
C 18.2800000   11.7120000   18.8210000  
C 15.3380000    8.8160000   19.4430000  
C 14.4190000    9.6370000   20.0970000  
N 14.9820000   10.9360000   20.3050000  
O 12.7020000    8.0380000   20.2920000  
C 13.0420000    9.2700000   20.6320000  
O 12.2720000   10.0440000   21.2300000  
O 19.1430000   12.7150000   18.5890000  
O 19.6480000   10.1810000   17.5360000  
H 17.8370000    8.2650000   18.2530000  
H 15.2050000    7.7950000   19.1040000  
H 13.4470000    7.6740000   19.7470000  
H 18.9140000   13.5890000   18.9610000  
C 16.8850000   13.1530000   20.1830000  
C 17.7790000   13.4810000   21.2350000  
C 17.6580000   14.7250000   21.8060000  
C 16.6910000   15.6990000   21.5450000  
C 15.7560000   15.2980000   20.5820000  
C 15.8370000   14.0920000   19.8900000  
C 19.0910000   13.0000000   21.7300000  
C 19.5310000   13.9960000   22.6870000  
N 18.6040000   15.0230000   22.7690000  
O 21.3970000   12.7410000   23.5450000  
C 20.7160000   13.9370000   23.6690000  
O 21.0590000   14.8470000   24.3910000  
O 14.7490000   16.1710000   20.2540000  
O 14.8690000   13.8090000   19.0130000  
H 19.4830000   12.0170000   21.6110000  
H 20.7180000   12.3100000   23.1070000  
H 18.7390000   15.8730000   23.2750000  
H 14.2690000   15.8150000   19.4670000  
H 14.7240000   12.8480000   18.8160000  
C 16.5940000   16.9980000   22.2600000  
C 17.7010000   17.8800000   22.0950000  
C 17.8660000   19.0220000   22.8690000  
C 16.7500000   19.5460000   23.5890000  
C 15.6210000   18.6800000   23.7840000  
C 15.5400000   17.3810000   23.1680000  
C 18.9930000   17.7740000   21.3710000  
C 19.7210000   18.9450000   21.6700000  
N 18.9980000   19.6950000   22.5770000  
O 21.6060000   18.5460000   20.2320000  
C 21.0660000   19.2980000   21.2750000  
O 21.6320000   20.2380000   21.7920000  
O 14.6070000   19.0390000   24.6320000  
O 14.4650000   16.5410000   23.4310000  
H 19.1910000   16.8940000   20.7720000  
H 20.8460000   17.9860000   20.0060000  
H 19.2830000   20.6060000   22.9110000  
H 14.4500000   19.9920000   24.4640000  
H 14.3480000   15.9810000   22.7080000  
C 16.8180000   20.9620000   24.1930000  
C 16.8210000   22.0150000   23.2590000  
C 17.0590000   23.3230000   23.6890000  
C 17.3970000   23.6350000   24.9590000  
C 17.4810000   22.5820000   25.9150000  
C 17.1810000   21.2400000   25.5210000  
C 16.4440000   21.9620000   21.8640000  
C 16.6900000   23.2760000   21.4480000  
N 16.9460000   24.1060000   22.5820000  
O 16.5420000   22.9320000   19.1160000  
C 16.6300000   23.8370000   20.1260000  
O 16.7760000   25.0410000   19.9510000  
O 17.8410000   22.8870000   27.2260000  
O 17.4180000   20.2370000   26.4430000  
H 16.1870000   21.1580000   21.1780000  
H 16.4660000   22.0860000   19.5610000  
H 17.0840000   25.0910000   22.4610000  
H 18.1110000   22.0200000   27.5070000  
H 17.2600000   19.3520000   26.0510000  
H 17.5280000   24.5960000   25.3930000  
