76
110 
C 11.7210000   16.6190000   26.4250000  
C 10.4710000   16.0210000   25.8910000  
C 10.5410000   15.4050000   24.6750000  
C 11.7280000   15.1230000   24.0120000  
C 12.9820000   15.7400000   24.4730000  
C 12.9790000   16.4950000   25.6610000  
C  9.5480000   14.8110000   23.9120000  
C 10.2310000   14.3420000   22.7500000  
N 11.6180000   14.5940000   22.8450000  
O  8.2990000   13.4190000   21.6740000  
C  9.6310000   13.5750000   21.6200000  
O 10.3120000   13.0930000   20.7440000  
O 14.1040000   17.0780000   26.1100000  
O 11.5940000   17.2710000   27.4370000  
H  9.5880000   16.1430000   26.5000000  
H  8.4660000   14.7350000   24.1850000  
H  8.1670000   13.9440000   22.4570000  
H 14.8210000   16.8080000   25.4600000  
C 14.1370000   15.8170000   23.5490000  
C 14.3960000   17.0050000   23.0190000  
C 15.5340000   17.2550000   22.3190000  
C 16.5630000   16.3080000   22.0320000  
C 16.1460000   14.9650000   22.4080000  
C 14.9680000   14.7210000   23.1450000  
C 13.6640000   18.2830000   23.1430000  
C 14.4100000   19.2150000   22.4440000  
N 15.5960000   18.5970000   22.0490000  
O 12.8300000   20.9930000   22.6350000  
C 14.0210000   20.5940000   22.1340000  
O 14.7720000   21.3560000   21.5210000  
O 17.0110000   14.0100000   22.0270000  
O 14.6820000   13.4690000   23.5890000  
H 12.7320000   18.5080000   23.6740000  
H 12.6240000   20.1730000   23.2450000  
H 16.2710000   19.0470000   21.4120000  
H 17.0730000   13.3870000   22.7250000  
H 13.7950000   13.2800000   23.9390000  
C 17.8860000   16.6920000   21.4160000  
C 19.0850000   16.6310000   22.0630000  
C 20.2580000   16.9680000   21.4320000  
C 20.4300000   17.4660000   20.1390000  
C 19.1800000   17.5550000   19.4740000  
C 17.9360000   17.1550000   20.0570000  
C 19.4820000   16.0500000   23.3060000  
C 20.8320000   16.1160000   23.4130000  
N 21.2880000   16.7000000   22.2280000  
O 21.0690000   15.5620000   25.8090000  
C 21.6880000   15.9180000   24.6530000  
O 22.9160000   16.0500000   24.5910000  
O 19.1770000   17.9650000   18.1700000  
O 16.8380000   17.1240000   19.2430000  
H 18.7640000   15.7430000   24.0680000  
H 20.1620000   15.3520000   25.6560000  
H 22.3230000   16.9270000   22.0510000  
H 20.0490000   18.3870000   17.9620000  
H 16.2970000   16.4330000   19.5290000  
C 21.7830000   17.6710000   19.4970000  
C 22.4050000   16.6600000   18.7430000  
C 23.5960000   16.8620000   18.1430000  
C 24.4600000   17.8890000   18.4760000  
C 23.9170000   18.9020000   19.3590000  
C 22.6110000   18.7540000   19.9070000  
C 22.0060000   15.3110000   18.3530000  
C 22.9100000   14.7830000   17.4710000  
N 23.9320000   15.7470000   17.3610000  
O 21.5900000   13.0130000   16.6550000  
C 22.7620000   13.6390000   16.5700000  
O 23.6150000   13.3310000   15.7470000  
O 24.7300000   19.8330000   19.8680000  
O 22.1520000   19.5900000   20.9070000  
H 21.1220000   14.8300000   18.6680000  
H 21.1280000   13.6540000   17.2220000  
H 24.7560000   15.6120000   16.8100000  
H 24.2640000   20.0850000   20.6500000  
H 21.1830000   19.4190000   21.0430000  
H 25.5070000   17.9570000   18.0470000  
