76
110 
C 19.5090000   12.5090000   27.7280000  
C 19.2700000   13.3370000   28.9020000  
C 18.7230000   14.5800000   28.6420000  
C 18.3360000   15.0750000   27.3700000  
C 18.6090000   14.2800000   26.2210000  
C 19.2970000   13.0760000   26.3610000  
C 18.4940000   15.5800000   29.6030000  
C 17.9480000   16.6540000   28.8580000  
N 17.9110000   16.3720000   27.4630000  
O 17.6760000   17.9990000   30.8150000  
C 17.5940000   17.9360000   29.4280000  
O 17.2440000   18.9280000   28.7940000  
O 19.7920000   12.3360000   25.3340000  
O 19.9340000   11.3390000   27.8810000  
H 19.5610000   12.9850000   29.8540000  
H 18.5840000   15.4660000   30.7050000  
H 17.7590000   17.0450000   31.0440000  
H 19.8140000   12.9490000   24.5750000  
C 18.1370000   14.7750000   24.9380000  
C 19.0310000   15.3510000   24.0780000  
C 18.5610000   15.9150000   22.9030000  
C 17.2850000   16.0100000   22.5220000  
C 16.3470000   15.4040000   23.4160000  
C 16.7800000   14.8120000   24.6340000  
C 20.4740000   15.5900000   24.1620000  
C 20.8360000   16.2680000   23.0220000  
N 19.6880000   16.4090000   22.2100000  
O 23.1100000   16.5480000   23.4070000  
C 22.1410000   16.6610000   22.5520000  
O 22.3640000   17.1630000   21.4680000  
O 15.0650000   15.1900000   22.9950000  
O 15.8520000   14.0960000   25.3750000  
H 21.1200000   15.3510000   24.9450000  
H 22.8210000   16.1850000   24.2600000  
H 19.6710000   16.6680000   21.2120000  
H 14.7770000   14.4130000   23.5190000  
H 16.0810000   14.3800000   26.2990000  
C 16.8170000   16.6740000   21.2330000  
C 17.2810000   16.2150000   19.9890000  
C 16.9100000   16.8410000   18.8190000  
C 16.1490000   18.0340000   18.8060000  
C 15.8140000   18.5530000   20.0180000  
C 16.0460000   17.8300000   21.2670000  
C 17.9460000   15.0290000   19.5470000  
C 17.8380000   14.9480000   18.1700000  
N 17.1730000   16.0920000   17.7430000  
O 19.0600000   12.8730000   18.0530000  
C 18.3720000   13.8420000   17.3230000  
O 18.2030000   13.8320000   16.1210000  
O 15.1290000   19.7780000   20.1020000  
O 15.6670000   18.3450000   22.4440000  
H 18.5700000   14.2530000   20.1190000  
H 19.0150000   13.1420000   18.9870000  
H 16.8040000   16.2480000   16.7870000  
H 15.1100000   20.0360000   19.1690000  
H 15.6900000   17.6170000   23.0780000  
C 15.8870000   18.7090000   17.5270000  
C 14.7390000   18.4680000   16.7920000  
C 14.4730000   19.0520000   15.5630000  
C 15.3670000   20.0370000   15.0090000  
C 16.5500000   20.2310000   15.6820000  
C 16.8430000   19.5510000   16.8960000  
C 13.5790000   17.6230000   17.0970000  
C 12.6540000   17.8610000   16.0880000  
N 13.2070000   18.7590000   15.1160000  
O 11.0040000   16.5050000   17.0700000  
C 11.2910000   17.3160000   16.0370000  
O 10.4990000   17.5720000   15.1720000  
O 17.4540000   21.1630000   15.1700000  
O 18.0480000   19.7630000   17.5550000  
H 13.4600000   16.9030000   17.9560000  
H 11.7310000   16.5730000   17.6530000  
H 12.7550000   18.9070000   14.1770000  
H 18.2420000   21.0640000   15.6770000  
H 17.8580000   19.6290000   18.5460000  
H 15.1770000   20.6380000   14.1770000  
