76
110 
C 11.8750000   14.5000000   25.7520000  
C 10.9660000   15.4910000   26.3130000  
C 11.1340000   16.8050000   26.0160000  
C 12.3020000   17.3050000   25.3620000  
C 13.2240000   16.3890000   24.7640000  
C 12.9840000   15.0280000   24.9340000  
C 10.3900000   17.8710000   26.4580000  
C 11.1330000   18.9790000   26.0070000  
N 12.3110000   18.6410000   25.3190000  
O  9.4210000   20.4060000   26.8440000  
C 10.6410000   20.3440000   26.2740000  
O 11.2650000   21.3360000   25.9090000  
O 13.7590000   14.0560000   24.4590000  
O 11.6370000   13.3130000   26.0060000  
H 10.0830000   15.1730000   26.8510000  
H  9.5210000   17.8070000   27.0340000  
H  9.0770000   19.4690000   26.8200000  
H 14.2640000   14.3500000   23.7070000  
C 14.2810000   16.7810000   23.8030000  
C 15.6200000   16.5980000   24.2050000  
C 16.6300000   16.6670000   23.2650000  
C 16.4200000   16.8430000   21.8810000  
C 15.0470000   17.1300000   21.5300000  
C 13.9900000   17.0400000   22.4520000  
C 16.2330000   16.1420000   25.4340000  
C 17.6000000   16.1120000   25.2130000  
N 17.8610000   16.4200000   23.8600000  
O 18.1810000   16.0410000   27.5350000  
C 18.6480000   16.0740000   26.2330000  
O 19.8330000   15.9430000   25.9760000  
O 14.8590000   17.5250000   20.2240000  
O 12.7050000   17.1610000   22.0140000  
H 15.6860000   16.0790000   26.4220000  
H 17.2270000   16.1700000   27.5940000  
H 18.8010000   16.5950000   23.4590000  
H 13.9460000   17.7720000   20.1380000  
H 12.1170000   16.9760000   22.8610000  
C 17.6370000   16.8360000   20.9790000  
C 18.4950000   15.7250000   20.8110000  
C 19.5890000   15.9220000   20.0380000  
C 19.9190000   17.1040000   19.2870000  
C 19.0350000   18.1640000   19.3520000  
C 17.9150000   18.0560000   20.2130000  
C 18.5560000   14.4270000   21.4180000  
C 19.8000000   13.9400000   21.1000000  
N 20.4270000   14.8880000   20.2250000  
O 19.7060000   11.9760000   22.3770000  
C 20.3750000   12.6680000   21.4620000  
O 21.5120000   12.3400000   21.0200000  
O 19.3810000   19.3870000   18.7960000  
O 17.1170000   19.1330000   20.3640000  
H 17.7680000   14.0380000   22.0760000  
H 18.9420000   12.5250000   22.5090000  
H 21.4010000   14.8460000   19.8910000  
H 18.7290000   20.0920000   18.9210000  
H 16.3270000   18.8250000   20.7930000  
C 21.2530000   17.0770000   18.5620000  
C 21.3080000   16.3730000   17.3060000  
C 22.5100000   16.1890000   16.6380000  
C 23.7280000   16.6400000   17.1740000  
C 23.6210000   17.4520000   18.3600000  
C 22.4260000   17.6380000   19.1190000  
C 20.2580000   15.7020000   16.5310000  
C 20.8420000   15.2970000   15.3670000  
N 22.1940000   15.5530000   15.4720000  
O 18.8480000   14.9220000   14.4120000  
C 20.1350000   14.7140000   14.2350000  
O 20.5870000   14.2260000   13.1920000  
O 24.6940000   18.1720000   18.7620000  
O 22.3730000   18.3350000   20.3040000  
H 19.2970000   15.4440000   16.9250000  
H 18.8110000   15.3500000   15.3180000  
H 22.8850000   15.3530000   14.7780000  
H 24.5630000   18.2720000   19.7200000  
H 21.5300000   18.3030000   20.7750000  
H 24.6730000   16.5560000   16.5430000  
