76
110 
C 15.0970000    9.3230000   20.5390000  
C 16.2480000    8.6060000   19.9490000  
C 17.4940000    9.2540000   19.8170000  
C 17.6370000   10.5340000   20.2520000  
C 16.6160000   11.2080000   21.0740000  
C 15.3560000   10.6180000   21.2170000  
C 18.6710000    8.8850000   19.1540000  
C 19.4170000   10.0450000   19.1560000  
N 18.7460000   11.1080000   19.8130000  
O 21.2430000    8.9580000   18.0420000  
C 20.7480000   10.1340000   18.4780000  
O 21.2610000   11.2620000   18.2900000  
O 14.3610000   11.1300000   21.9240000  
O 14.0210000    8.7340000   20.4750000  
H 16.0040000    7.6800000   19.4520000  
H 18.8350000    7.9500000   18.6540000  
H 20.6760000    8.3150000   18.5120000  
H 14.7090000   11.8900000   22.4640000  
C 16.7570000   12.6230000   21.3870000  
C 16.0560000   13.6630000   20.8470000  
C 16.2180000   14.9560000   21.1460000  
C 17.2330000   15.4990000   21.9760000  
C 17.9720000   14.4430000   22.5860000  
C 17.7090000   13.0230000   22.3320000  
C 15.0760000   13.6060000   19.7790000  
C 14.9060000   14.9080000   19.3250000  
N 15.5770000   15.7640000   20.2300000  
O 13.3570000   14.3530000   17.5670000  
C 14.0970000   15.2930000   18.1710000  
O 13.9290000   16.4730000   17.8620000  
O 19.0320000   14.7440000   23.4210000  
O 18.4480000   12.1220000   23.0330000  
H 14.5860000   12.7150000   19.3880000  
H 13.3680000   13.6310000   18.2060000  
H 15.6490000   16.7750000   20.2330000  
H 19.4820000   13.8900000   23.5980000  
H 18.3730000   11.2240000   22.6910000  
C 17.5780000   16.9050000   22.1390000  
C 16.6970000   17.8660000   22.7200000  
C 16.9870000   19.2230000   22.6760000  
C 18.2100000   19.7570000   22.1820000  
C 19.1350000   18.8550000   21.5820000  
C 18.7810000   17.4500000   21.6150000  
C 15.4030000   17.6920000   23.3140000  
C 15.0320000   18.9990000   23.6190000  
N 16.0060000   19.9540000   23.2120000  
O 12.9270000   18.4580000   24.3780000  
C 13.8020000   19.4340000   24.2940000  
O 13.6170000   20.5060000   24.8040000  
O 20.2420000   19.3450000   20.9610000  
O 19.7100000   16.5750000   21.0920000  
H 14.8900000   16.7130000   23.4240000  
H 13.3040000   17.7740000   23.8280000  
H 16.1650000   20.8950000   23.4710000  
H 20.6210000   18.5960000   20.4230000  
H 19.7530000   15.7610000   21.6050000  
C 18.4600000   21.2380000   22.1950000  
C 18.4080000   22.0080000   23.4460000  
C 18.5840000   23.3800000   23.4470000  
C 18.8470000   24.1270000   22.2940000  
C 18.8980000   23.4150000   21.1020000  
C 18.6740000   22.0360000   21.0010000  
C 18.2770000   21.5980000   24.8070000  
C 18.3470000   22.7660000   25.5500000  
N 18.5980000   23.8490000   24.7460000  
O 17.6340000   21.7860000   27.5870000  
C 18.0780000   22.8720000   26.9840000  
O 18.2050000   23.9680000   27.4400000  
O 18.9860000   24.1780000   20.0060000  
O 18.4730000   21.5000000   19.7650000  
H 18.1470000   20.5750000   25.1420000  
H 17.4610000   21.1670000   26.8540000  
H 18.6170000   24.8040000   24.9790000  
H 19.3460000   23.6250000   19.3170000  
H 18.0480000   20.6470000   19.9570000  
H 18.7800000   25.2000000   22.2940000  
