76
110 
C 18.0060000   11.3700000   16.9520000  
C 17.2010000   10.2150000   17.2200000  
C 16.4100000   10.0910000   18.2970000  
C 16.3640000   11.0820000   19.3370000  
C 17.0240000   12.3320000   19.1200000  
C 17.9120000   12.4120000   18.0410000  
C 15.5660000    9.0740000   18.6340000  
C 14.9580000    9.5940000   19.7840000  
N 15.4160000   10.8710000   20.1900000  
O 13.4430000    7.7550000   20.0630000  
C 13.8560000    8.8820000   20.5780000  
O 13.4660000    9.3290000   21.6490000  
O 18.7300000   13.4820000   17.8110000  
O 18.6850000   11.5180000   15.9660000  
H 17.2670000    9.4140000   16.5500000  
H 15.3840000    8.0650000   18.2140000  
H 13.8820000    7.5890000   19.2220000  
H 18.7370000   14.0450000   18.6740000  
C 17.1060000   13.3420000   20.1500000  
C 18.2550000   13.6220000   20.9890000  
C 18.2250000   14.6440000   21.8900000  
C 17.0760000   15.4900000   22.0330000  
C 15.9170000   15.1710000   21.3070000  
C 15.9150000   14.1110000   20.3890000  
C 19.4910000   12.9820000   21.1490000  
C 20.1940000   13.6740000   22.1510000  
N 19.4030000   14.7980000   22.5800000  
O 22.1210000   12.4110000   22.0150000  
C 21.4530000   13.3230000   22.6980000  
O 21.9630000   13.9310000   23.6040000  
O 14.7860000   15.9130000   21.4010000  
O 14.7770000   13.7680000   19.7710000  
H 19.7280000   12.0140000   20.7170000  
H 21.4770000   12.2190000   21.2880000  
H 19.7100000   15.5150000   23.2330000  
H 14.0550000   15.6070000   20.8130000  
H 14.9610000   12.8540000   19.4240000  
C 17.1450000   16.7990000   22.7590000  
C 18.1050000   17.8180000   22.4340000  
C 18.0760000   19.0490000   23.1080000  
C 17.1000000   19.3920000   24.1170000  
C 16.3130000   18.3340000   24.6040000  
C 16.3710000   17.0810000   23.9230000  
C 19.0480000   18.0310000   21.3200000  
C 19.4670000   19.3550000   21.3860000  
N 18.7980000   20.0010000   22.4090000  
O 20.7830000   19.2620000   19.3700000  
C 20.4270000   19.9760000   20.4490000  
O 20.7280000   21.0890000   20.5040000  
O 15.3750000   18.4900000   25.5860000  
O 15.7010000   16.0000000   24.3970000  
H 19.3180000   17.2210000   20.6410000  
H 20.2890000   18.3790000   19.4760000  
H 18.7320000   21.0360000   22.5560000  
H 15.1630000   17.6320000   25.9580000  
H 15.8160000   15.2430000   23.7640000  
C 17.0100000   20.7900000   24.6820000  
C 16.4640000   21.8100000   23.8800000  
C 16.3950000   23.1220000   24.2880000  
C 16.8720000   23.5580000   25.4630000  
C 17.5670000   22.5450000   26.2600000  
C 17.6210000   21.1740000   25.8520000  
C 15.8090000   21.7500000   22.5410000  
C 15.3290000   23.0650000   22.2580000  
N 15.8660000   23.8510000   23.2420000  
O 14.6090000   22.6470000   20.0270000  
C 14.5820000   23.4810000   21.0970000  
O 14.0310000   24.5060000   20.9930000  
O 18.2690000   22.9700000   27.3180000  
O 18.3100000   20.2470000   26.4820000  
H 15.6920000   20.8950000   21.8840000  
H 14.9050000   21.8150000   20.4490000  
H 15.6480000   24.8610000   23.3310000  
H 18.4210000   22.2500000   27.9370000  
H 18.1730000   19.5080000   25.8880000  
H 16.8840000   24.6360000   25.7570000  
