76
110 
C 11.6400000   18.5180000   26.2660000  
C 11.8170000   17.8230000   27.6250000  
C 12.8790000   16.9720000   27.7090000  
C 13.8390000   16.7260000   26.7010000  
C 13.7560000   17.4140000   25.4590000  
C 12.7300000   18.2970000   25.2670000  
C 13.3050000   16.1610000   28.7530000  
C 14.4280000   15.4720000   28.3060000  
N 14.7320000   15.7770000   26.9610000  
O 14.4340000   13.9740000   30.1570000  
C 15.0690000   14.3450000   28.9970000  
O 16.0330000   13.7150000   28.5520000  
O 12.4460000   18.8860000   24.0690000  
O 10.7490000   19.3000000   26.0990000  
H 11.0740000   18.0000000   28.3410000  
H 12.7950000   15.9870000   29.7090000  
H 13.5880000   14.2710000   29.8800000  
H 13.2400000   18.7190000   23.5710000  
C 14.7290000   17.0210000   24.3820000  
C 14.3450000   16.5490000   23.1130000  
C 15.3060000   16.3480000   22.1610000  
C 16.7260000   16.6020000   22.2330000  
C 17.1870000   16.9780000   23.5130000  
C 16.1870000   17.1370000   24.5490000  
C 13.1110000   16.2710000   22.4790000  
C 13.3680000   15.7180000   21.2620000  
N 14.7320000   15.7970000   21.0790000  
O 11.0940000   15.2020000   20.5840000  
C 12.4070000   15.0950000   20.2710000  
O 12.8270000   14.4120000   19.3250000  
O 18.5100000   17.0250000   23.7850000  
O 16.6430000   17.5330000   25.8010000  
H 12.1600000   16.3370000   22.9450000  
H 11.0370000   15.5650000   21.5090000  
H 15.2330000   15.6290000   20.2300000  
H 18.5990000   17.1660000   24.7810000  
H 15.9360000   17.3700000   26.4430000  
C 17.6480000   16.3250000   21.0860000  
C 17.8030000   17.2620000   20.0370000  
C 18.6790000   17.0410000   18.9950000  
C 19.4050000   15.8610000   18.9220000  
C 19.1560000   14.7470000   19.8210000  
C 18.2920000   15.0430000   20.9340000  
C 17.2850000   18.5790000   19.8500000  
C 17.8700000   19.0640000   18.6530000  
N 18.6220000   18.0290000   18.0450000  
O 17.0410000   21.3980000   18.6810000  
C 17.6750000   20.4290000   18.0500000  
O 18.0020000   20.7260000   16.9080000  
O 19.9790000   13.6100000   19.7260000  
O 18.1030000   14.1210000   21.8920000  
H 16.5270000   19.0270000   20.5280000  
H 16.9290000   21.0720000   19.6040000  
H 19.2870000   18.1420000   17.2550000  
H 20.6820000   13.8360000   19.1340000  
H 17.4670000   14.5250000   22.5500000  
C 20.4690000   15.6190000   17.8590000  
C 21.8260000   15.9330000   18.1870000  
C 22.7830000   15.5640000   17.2450000  
C 22.5750000   14.8100000   16.0820000  
C 21.2180000   14.5650000   15.7410000  
C 20.1860000   14.9480000   16.6290000  
C 22.4930000   16.3900000   19.3510000  
C 23.8740000   16.3420000   19.0970000  
N 24.0300000   15.8040000   17.8440000  
O 24.4450000   17.2150000   21.3510000  
C 24.8650000   16.8050000   20.0810000  
O 26.0070000   16.9380000   19.7550000  
O 20.9330000   13.6890000   14.7280000  
O 18.8570000   14.6720000   16.2920000  
H 22.0780000   16.8580000   20.2370000  
H 23.5260000   16.8350000   21.3880000  
H 24.8810000   15.5710000   17.3460000  
H 19.9890000   13.5320000   14.6020000  
H 18.1600000   15.2160000   16.7890000  
H 23.3620000   14.3690000   15.5430000  
