76
110 
C 22.2960000   11.0740000   23.6200000  
C 21.9030000    9.8570000   22.7960000  
C 20.7410000    9.9560000   22.0470000  
C 20.0440000   11.1550000   21.7720000  
C 20.4690000   12.3720000   22.4160000  
C 21.4770000   12.2810000   23.3330000  
C 20.2150000    9.0850000   21.0250000  
C 19.2830000    9.8260000   20.2790000  
N 19.2350000   11.1600000   20.7600000  
O 18.8180000    7.9820000   19.0050000  
C 18.6000000    9.2770000   19.1060000  
O 17.7850000    9.8420000   18.4130000  
O 21.8160000   13.3860000   24.0380000  
O 23.1870000   10.9300000   24.4280000  
H 22.3570000    8.8990000   22.9520000  
H 20.6170000    8.0710000   20.8080000  
H 19.5680000    7.7470000   19.5650000  
H 21.2560000   14.1320000   23.7090000  
C 19.7250000   13.5970000   22.1660000  
C 18.8310000   14.0840000   23.0990000  
C 17.9940000   15.0740000   22.8640000  
C 17.9660000   15.8130000   21.6670000  
C 19.0150000   15.4900000   20.7650000  
C 19.7960000   14.3140000   20.9610000  
C 18.5300000   13.6060000   24.4380000  
C 17.5800000   14.4600000   24.9470000  
N 17.0660000   15.3060000   23.8910000  
O 17.6920000   13.5880000   27.1640000  
C 17.1250000   14.4470000   26.2930000  
O 16.2290000   15.1480000   26.7030000  
O 19.2870000   16.2690000   19.6680000  
O 20.6850000   14.0240000   19.9200000  
H 19.0030000   12.8240000   24.9880000  
H 18.3850000   13.1480000   26.6270000  
H 16.4680000   16.1240000   24.0940000  
H 20.0110000   15.8120000   19.1810000  
H 20.7220000   13.0230000   19.7890000  
C 16.9620000   16.8890000   21.3410000  
C 16.8760000   18.1090000   22.0760000  
C 15.8920000   18.9890000   21.7780000  
C 14.9340000   18.8760000   20.8040000  
C 15.0650000   17.6680000   20.0550000  
C 16.0350000   16.6720000   20.2910000  
C 17.7510000   18.7820000   23.1040000  
C 17.2450000   20.0370000   23.3080000  
N 16.0490000   20.0980000   22.5960000  
O 18.4890000   20.6140000   25.1560000  
C 17.6080000   21.0590000   24.2920000  
O 16.9860000   22.1030000   24.3550000  
O 14.2130000   17.4870000   18.9940000  
O 16.0770000   15.5420000   19.4970000  
H 18.6780000   18.3510000   23.5040000  
H 18.4490000   19.7030000   24.9960000  
H 15.4260000   20.8590000   22.7560000  
H 14.4000000   16.6650000   18.5010000  
H 16.8490000   15.0080000   19.7340000  
C 13.8660000   19.8830000   20.6090000  
C 14.1830000   21.1600000   20.1780000  
C 13.1960000   22.1340000   20.1910000  
C 11.8920000   21.9090000   20.5390000  
C 11.5640000   20.6180000   21.0480000  
C 12.5730000   19.6450000   21.0880000  
C 15.3080000   21.6770000   19.5130000  
C 14.9960000   23.0310000   19.2850000  
N 13.6700000   23.2600000   19.6440000  
O 17.2640000   23.5420000   18.7090000  
C 15.9900000   24.0660000   18.8790000  
O 15.6630000   25.2380000   18.8560000  
O 10.2980000   20.3590000   21.4290000  
O 12.2260000   18.3460000   21.5340000  
H 16.1440000   21.0550000   19.3090000  
H 17.1700000   22.6150000   19.0560000  
H 13.2310000   24.1610000   19.4820000  
H 10.2550000   19.5240000   21.8840000  
H 12.8970000   17.6310000   21.2910000  
H 11.1560000   22.6970000   20.4590000  
