76
110 
C 19.4790000   16.7740000   28.5480000  
C 20.7200000   16.0400000   28.7050000  
C 21.2300000   15.2710000   27.6700000  
C 20.7030000   15.2060000   26.3840000  
C 19.5300000   15.9520000   26.2060000  
C 18.8800000   16.7270000   27.2120000  
C 22.3890000   14.4240000   27.6990000  
C 22.4860000   13.9150000   26.3800000  
N 21.3950000   14.3820000   25.5980000  
O 24.6260000   12.8030000   26.7090000  
C 23.6090000   13.0240000   25.8680000  
O 23.5560000   12.5130000   24.8090000  
O 17.6470000   17.2300000   27.0040000  
O 18.9690000   17.3710000   29.4870000  
H 21.0790000   16.1560000   29.6790000  
H 23.1400000   14.3580000   28.5520000  
H 24.4880000   13.3890000   27.4750000  
H 17.4140000   16.9240000   26.1020000  
C 18.9140000   15.8720000   24.8440000  
C 17.6230000   15.3370000   24.6530000  
C 16.9950000   15.5270000   23.4450000  
C 17.4750000   16.1610000   22.3180000  
C 18.8090000   16.6380000   22.5050000  
C 19.5100000   16.5200000   23.7210000  
C 16.7380000   14.5460000   25.4780000  
C 15.5450000   14.3710000   24.7290000  
N 15.7620000   14.9770000   23.5170000  
O 14.3910000   12.7180000   26.2130000  
C 14.3090000   13.5890000   25.1090000  
O 13.2990000   13.5460000   24.4240000  
O 19.4450000   17.3590000   21.5350000  
O 20.7530000   17.1050000   23.8030000  
H 17.0050000   13.9360000   26.3290000  
H 15.2950000   12.8290000   26.5840000  
H 14.9750000   15.0470000   22.8720000  
H 20.3310000   17.5980000   21.8200000  
H 20.9920000   16.9820000   24.7320000  
C 16.7100000   16.3690000   21.0900000  
C 15.7840000   17.4070000   20.9520000  
C 15.0360000   17.6070000   19.8010000  
C 15.2840000   16.9030000   18.5880000  
C 16.2380000   15.8130000   18.7110000  
C 16.9440000   15.6450000   19.9340000  
C 15.1590000   18.2290000   21.9820000  
C 14.2420000   19.0630000   21.2910000  
N 14.1140000   18.6280000   19.9710000  
O 13.8930000   20.6620000   23.0890000  
C 13.5540000   20.2950000   21.8090000  
O 12.6660000   20.8480000   21.1470000  
O 16.4200000   14.9880000   17.6270000  
O 17.8430000   14.6430000   20.0270000  
H 15.6010000   18.3530000   22.9850000  
H 14.3960000   20.0180000   23.5480000  
H 13.4490000   19.0010000   19.3150000  
H 15.9020000   15.2240000   16.8300000  
H 18.2850000   14.6970000   20.8680000  
C 14.7050000   17.3000000   17.2590000  
C 15.6190000   17.6430000   16.2200000  
C 15.1620000   17.8950000   14.9460000  
C 13.7790000   17.7020000   14.6760000  
C 12.8780000   17.2920000   15.6410000  
C 13.3730000   17.1120000   16.9640000  
C 17.0290000   17.8750000   16.2310000  
C 17.3730000   18.2420000   14.9170000  
N 16.2280000   18.2780000   14.1620000  
O 19.7120000   18.4740000   15.1530000  
C 18.6960000   18.5310000   14.3080000  
O 18.8660000   18.7660000   13.1180000  
O 11.5720000   17.1550000   15.3550000  
O 12.5080000   16.7860000   17.9480000  
H 17.7460000   17.8120000   17.0820000  
H 19.3700000   18.3230000   16.0140000  
H 16.2870000   18.4580000   13.1120000  
H 11.0590000   16.9840000   16.1690000  
H 13.0820000   16.5720000   18.7230000  
H 13.4150000   17.9590000   13.7430000  
