76
110 
C 20.5530000   15.1370000   28.4870000  
C 21.3310000   13.9250000   28.2270000  
C 21.4700000   13.4530000   26.9280000  
C 20.7670000   14.0850000   25.8070000  
C 19.9430000   15.2340000   26.1120000  
C 19.9040000   15.7840000   27.3800000  
C 22.2060000   12.4750000   26.3450000  
C 21.9590000   12.5320000   24.9610000  
N 21.0540000   13.5600000   24.6270000  
O 23.4080000   10.7970000   24.3740000  
C 22.4780000   11.6060000   23.9560000  
O 22.1440000   11.6860000   22.7950000  
O 19.1650000   16.8400000   27.8280000  
O 20.4980000   15.5060000   29.6740000  
H 21.7570000   13.5290000   29.1300000  
H 22.8600000   11.7490000   26.9100000  
H 23.6640000   10.9610000   25.2680000  
H 18.5130000   16.9590000   27.1480000  
C 19.2620000   15.8840000   24.9800000  
C 17.9350000   15.6100000   24.8310000  
C 17.2680000   15.8370000   23.6520000  
C 17.8300000   16.4600000   22.4790000  
C 19.2590000   16.7780000   22.7110000  
C 19.9280000   16.4210000   23.8850000  
C 16.9400000   14.8450000   25.6330000  
C 15.7330000   14.7820000   24.8720000  
N 15.9780000   15.4390000   23.6850000  
O 14.3960000   13.6340000   26.5750000  
C 14.4150000   14.2110000   25.3530000  
O 13.3650000   14.2620000   24.7310000  
O 19.9960000   17.3930000   21.7310000  
O 21.3380000   16.7060000   23.9680000  
H 17.0470000   14.3630000   26.5980000  
H 15.2160000   13.9360000   26.9670000  
H 15.3840000   15.4830000   22.8790000  
H 20.5570000   18.0500000   22.1630000  
H 21.7770000   15.9550000   24.1500000  
C 17.0620000   16.8090000   21.3030000  
C 16.6460000   18.1760000   21.0710000  
C 15.8430000   18.4790000   19.9910000  
C 15.3260000   17.5840000   19.0850000  
C 15.7770000   16.2550000   19.2680000  
C 16.5710000   15.8660000   20.3860000  
C 16.7960000   19.4110000   21.7600000  
C 16.1260000   20.4430000   21.0670000  
N 15.5670000   19.8580000   19.9480000  
O 16.3330000   22.1670000   22.6680000  
C 16.0270000   21.8890000   21.3670000  
O 15.6160000   22.6900000   20.6030000  
O 15.4160000   15.3360000   18.3430000  
O 16.9060000   14.5420000   20.5390000  
H 17.3770000   19.6050000   22.6720000  
H 16.7640000   21.4050000   22.9440000  
H 15.0650000   20.3420000   19.1780000  
H 14.6840000   15.6220000   17.7870000  
H 17.8040000   14.5410000   21.0070000  
C 14.3740000   17.9590000   18.0100000  
C 14.6810000   17.8950000   16.6080000  
C 13.6980000   18.1730000   15.6400000  
C 12.3840000   18.6300000   15.9540000  
C 12.0930000   18.6650000   17.3430000  
C 13.0400000   18.3190000   18.3400000  
C 15.8930000   17.6360000   15.8750000  
C 15.5950000   17.6350000   14.5330000  
N 14.2540000   18.0210000   14.3890000  
O 17.6260000   16.6940000   13.9150000  
C 16.5290000   17.2330000   13.4600000  
O 16.2290000   17.3180000   12.3020000  
O 10.8510000   19.0640000   17.6050000  
O 12.6590000   18.3460000   19.6260000  
H 16.9010000   17.5100000   16.3390000  
H 17.3700000   16.6250000   14.8110000  
H 13.7750000   18.0190000   13.4440000  
H 10.7810000   18.7940000   18.5290000  
H 13.4100000   17.8960000   20.0490000  
H 11.5870000   18.9510000   15.2540000  
