76
110 
C 22.4480000   11.7460000   21.2600000  
C 22.0280000   10.3080000   20.9960000  
C 20.7200000    9.9610000   20.7290000  
C 19.6970000   10.9110000   20.7930000  
C 20.0350000   12.3230000   20.8370000  
C 21.3380000   12.7450000   21.2430000  
C 20.0470000    8.7200000   20.6130000  
C 18.7010000    9.0620000   20.7220000  
N 18.4790000   10.4620000   20.7310000  
O 17.8190000    6.8630000   20.5220000  
C 17.5330000    8.1740000   20.7020000  
O 16.3690000    8.5550000   20.8600000  
O 21.7010000   14.0030000   21.6490000  
O 23.6000000   12.1010000   21.4760000  
H 22.8680000    9.6280000   21.0290000  
H 20.4950000    7.7870000   20.4600000  
H 18.7990000    6.8690000   20.4630000  
H 20.8660000   14.4500000   21.8220000  
C 18.9500000   13.2750000   20.9450000  
C 18.3680000   13.6420000   22.1780000  
C 17.5280000   14.7410000   22.2320000  
C 17.1690000   15.5320000   21.1230000  
C 17.8200000   15.2220000   19.9330000  
C 18.7020000   14.0970000   19.8130000  
C 18.5780000   13.2570000   23.5380000  
C 17.8530000   14.1290000   24.3530000  
N 17.2120000   15.0360000   23.5070000  
O 18.6840000   13.4930000   26.4200000  
C 17.9200000   14.3810000   25.8320000  
O 17.2560000   15.1920000   26.4590000  
O 17.6480000   16.0140000   18.8320000  
O 19.2220000   13.8470000   18.5950000  
H 19.1820000   12.4600000   23.8480000  
H 19.0840000   12.9890000   25.7270000  
H 16.5080000   15.7270000   23.6760000  
H 18.2510000   15.8260000   18.1170000  
H 19.5540000   12.8600000   18.6770000  
C 16.4120000   16.8000000   21.2680000  
C 16.9240000   17.8970000   21.9580000  
C 16.1740000   18.9900000   22.1780000  
C 14.8910000   19.2610000   21.6810000  
C 14.2390000   18.1470000   21.0080000  
C 15.0330000   16.9490000   20.8190000  
C 18.2150000   18.1080000   22.6100000  
C 18.1340000   19.3600000   23.2280000  
N 16.8240000   19.8610000   22.9670000  
O 20.3400000   19.4410000   24.1330000  
C 19.1370000   20.0780000   24.0570000  
O 18.8970000   21.1100000   24.7330000  
O 12.9190000   18.2020000   20.5570000  
O 14.4840000   15.9030000   20.1470000  
H 19.0660000   17.4460000   22.7030000  
H 20.2860000   18.5330000   23.8550000  
H 16.3980000   20.7260000   23.3020000  
H 12.7740000   17.4260000   20.1190000  
H 15.0950000   15.1510000   20.2890000  
C 14.1400000   20.4760000   21.9630000  
C 14.5500000   21.7110000   21.3710000  
C 13.9050000   22.8990000   21.5890000  
C 12.7350000   23.0070000   22.3550000  
C 12.2400000   21.7690000   22.8550000  
C 12.8940000   20.5270000   22.7010000  
C 15.6390000   21.9990000   20.4530000  
C 15.5120000   23.3250000   20.0620000  
N 14.5810000   23.8980000   20.9140000  
O 17.4560000   23.1860000   18.7520000  
C 16.4840000   23.9990000   19.1510000  
O 16.4020000   25.1740000   18.7290000  
O 11.1730000   21.9090000   23.6960000  
O 12.4010000   19.3690000   23.2840000  
H 16.3730000   21.4150000   20.0230000  
H 17.2760000   22.2880000   19.0640000  
H 14.4160000   24.8250000   21.1500000  
H 10.9190000   21.0010000   23.9510000  
H 13.0140000   18.6100000   23.0370000  
H 12.2040000   23.9240000   22.4690000  
