76
110 
C 21.5410000   16.3010000   27.5770000  
C 21.9610000   14.9320000   27.9460000  
C 21.3140000   13.8740000   27.2970000  
C 20.3510000   14.0790000   26.2550000  
C 20.1340000   15.3830000   25.8090000  
C 20.7330000   16.4970000   26.3580000  
C 21.4880000   12.4920000   27.4370000  
C 20.6600000   11.9150000   26.4860000  
N 20.0160000   12.8970000   25.7280000  
O 21.3660000    9.6130000   26.7280000  
C 20.5910000   10.5150000   26.0340000  
O 20.0060000   10.1890000   25.0430000  
O 20.5640000   17.8600000   26.0170000  
O 21.7610000   17.2850000   28.2870000  
H 22.6210000   14.8900000   28.8650000  
H 22.2270000   11.9540000   28.0670000  
H 21.8170000   10.0720000   27.4600000  
H 19.9380000   17.8230000   25.2070000  
C 19.3120000   15.5240000   24.6110000  
C 17.9970000   16.0240000   24.6970000  
C 17.1810000   16.0910000   23.5860000  
C 17.6490000   15.7540000   22.2900000  
C 19.0370000   15.3120000   22.2250000  
C 19.7160000   15.1130000   23.3680000  
C 17.1610000   16.5160000   25.8010000  
C 15.9190000   16.8830000   25.2240000  
N 15.9310000   16.5610000   23.9000000  
O 15.0670000   17.8510000   27.2100000  
C 14.9130000   17.7170000   25.8920000  
O 14.0290000   18.2840000   25.3090000  
O 19.6530000   15.0210000   21.0370000  
O 20.9590000   14.5760000   23.2320000  
H 17.4290000   16.8620000   26.7660000  
H 15.8160000   17.2480000   27.3920000  
H 15.1770000   16.7320000   23.2590000  
H 20.4860000   14.6060000   21.2130000  
H 21.3930000   14.6460000   24.0980000  
C 16.7570000   16.0930000   21.1230000  
C 16.6820000   17.4130000   20.7200000  
C 15.8670000   17.7520000   19.6980000  
C 15.0330000   16.8680000   18.9840000  
C 15.1840000   15.4790000   19.2690000  
C 16.0980000   15.1070000   20.3670000  
C 17.1710000   18.7020000   21.2450000  
C 16.6330000   19.7210000   20.4550000  
N 15.9310000   19.1200000   19.4530000  
O 17.8380000   21.5720000   21.3930000  
C 16.9640000   21.1730000   20.4260000  
O 16.3630000   21.9450000   19.7080000  
O 14.4980000   14.5190000   18.5580000  
O 16.2760000   13.8230000   20.6660000  
H 17.7860000   18.8630000   22.0970000  
H 17.9400000   20.7590000   21.9360000  
H 15.4980000   19.5790000   18.6630000  
H 14.8220000   13.6600000   18.7640000  
H 16.9740000   13.7680000   21.4310000  
C 14.1480000   17.4090000   17.8930000  
C 14.5700000   17.4090000   16.5390000  
C 13.8220000   17.9910000   15.5970000  
C 12.6030000   18.6220000   15.8830000  
C 12.1480000   18.6100000   17.1830000  
C 12.9180000   18.0620000   18.2300000  
C 15.8040000   17.1250000   15.9780000  
C 15.8160000   17.5880000   14.6470000  
N 14.5410000   18.0690000   14.4020000  
O 18.1130000   17.3320000   14.3750000  
C 16.9250000   17.6750000   13.7720000  
O 16.8830000   17.8550000   12.5340000  
O 10.9350000   19.1680000   17.4570000  
O 12.4860000   18.1090000   19.5150000  
H 16.6340000   16.6310000   16.4730000  
H 17.8420000   17.1150000   15.2930000  
H 14.2290000   18.4500000   13.5110000  
H 10.8070000   19.2930000   18.4010000  
H 13.2710000   17.8610000   20.0380000  
H 12.0960000   19.1270000   15.0560000  
