76
110 
C 20.2330000    9.9860000   19.5910000  
C 19.1770000    8.9770000   19.8040000  
C 17.8260000    9.3470000   19.9550000  
C 17.4530000   10.7180000   19.9940000  
C 18.4600000   11.7810000   19.8020000  
C 19.8090000   11.4350000   19.6520000  
C 16.6500000    8.6330000   20.1950000  
C 15.6160000    9.5990000   20.2990000  
N 16.1170000   10.9250000   20.1880000  
O 14.1090000    8.1230000   21.3100000  
C 14.2650000    9.3130000   20.7560000  
O 13.2630000   10.0370000   20.6400000  
O 20.8380000   12.3430000   19.7150000  
O 21.3680000    9.6720000   19.4150000  
H 19.4780000    7.9840000   19.8960000  
H 16.4820000    7.5410000   20.2920000  
H 14.9990000    7.7410000   21.3300000  
H 20.5330000   13.2420000   19.9490000  
C 17.9850000   13.1330000   20.0700000  
C 18.1920000   13.6220000   21.3660000  
C 17.6850000   14.7980000   21.7720000  
C 17.1620000   15.7850000   20.9360000  
C 17.0080000   15.3280000   19.5980000  
C 17.4170000   14.0240000   19.1770000  
C 18.7510000   13.0000000   22.5450000  
C 18.6690000   13.8610000   23.5940000  
N 17.8900000   14.8980000   23.1670000  
O 19.9470000   12.4710000   24.9780000  
C 19.1630000   13.6000000   24.9750000  
O 18.9150000   14.2820000   25.9920000  
O 16.6480000   16.1470000   18.6320000  
O 17.3180000   13.6610000   17.8280000  
H 19.2050000   12.0580000   22.6120000  
H 20.1800000   12.4320000   24.0870000  
H 17.6350000   15.6820000   23.6930000  
H 16.7050000   15.6740000   17.7640000  
H 17.9200000   12.9070000   17.6180000  
C 16.7420000   17.1010000   21.4090000  
C 17.7000000   18.0290000   21.9720000  
C 17.2740000   19.2470000   22.4430000  
C 15.9190000   19.6790000   22.5820000  
C 14.9830000   18.7250000   22.0970000  
C 15.3660000   17.5330000   21.4750000  
C 19.0740000   17.9480000   22.2240000  
C 19.4240000   19.0520000   22.9430000  
N 18.2300000   19.8220000   23.1640000  
O 21.7470000   18.5410000   23.1280000  
C 20.8020000   19.4430000   23.4160000  
O 21.1570000   20.5210000   23.8690000  
O 13.6750000   19.0310000   22.0920000  
O 14.4200000   16.6480000   21.0930000  
H 19.8080000   17.1900000   22.0240000  
H 21.3230000   17.7800000   22.7510000  
H 18.1320000   20.7130000   23.7520000  
H 13.5360000   19.9960000   22.3280000  
H 14.8420000   15.7490000   20.9070000  
C 15.4900000   21.0070000   23.1610000  
C 15.8630000   22.1730000   22.5030000  
C 15.6400000   23.4510000   23.0020000  
C 15.1280000   23.6290000   24.3090000  
C 14.6240000   22.5150000   24.9650000  
C 14.8510000   21.2010000   24.3910000  
C 16.4200000   22.3840000   21.1660000  
C 16.5680000   23.7550000   20.9520000  
N 16.0730000   24.4100000   22.1320000  
O 17.5510000   23.3700000   18.8660000  
C 17.1990000   24.2930000   19.7370000  
O 17.2710000   25.4910000   19.5280000  
O 14.0290000   22.6270000   26.1790000  
O 14.5660000   20.1390000   25.1390000  
H 16.4970000   21.6410000   20.4010000  
H 17.2720000   22.6310000   19.3570000  
H 16.1880000   25.3750000   22.3750000  
H 13.8940000   21.7250000   26.5850000  
H 14.9240000   19.3150000   24.7070000  
H 14.9580000   24.5850000   24.7790000  
