76
110 
C 11.0970000   14.4020000   24.5640000  
C 10.3470000   13.4600000   23.7140000  
C 10.8180000   13.0710000   22.4920000  
C 11.9570000   13.6280000   21.9040000  
C 12.6760000   14.6930000   22.5810000  
C 12.3300000   14.9950000   23.8900000  
C 10.2650000   12.1510000   21.5430000  
C 11.1270000   12.2000000   20.4610000  
N 12.1170000   13.1260000   20.7070000  
O 10.0120000   10.5070000   19.3000000  
C 11.0650000   11.3040000   19.2910000  
O 11.8480000   11.2260000   18.3740000  
O 13.0340000   15.8320000   24.6590000  
O 10.7380000   14.5610000   25.6890000  
H  9.4930000   12.9320000   24.1790000  
H  9.3950000   11.5830000   21.7080000  
H  9.5610000   10.5010000   20.1270000  
H 13.6510000   16.4000000   24.1830000  
C 13.9540000   15.1470000   21.9980000  
C 14.1390000   16.5700000   21.7940000  
C 15.3360000   17.0400000   21.3490000  
C 16.5150000   16.2720000   21.1830000  
C 16.3070000   14.8580000   21.4370000  
C 15.1140000   14.3780000   21.9280000  
C 13.1960000   17.6680000   21.9080000  
C 13.9760000   18.7810000   21.5620000  
N 15.2450000   18.4260000   21.1660000  
O 12.2050000   20.2980000   22.1700000  
C 13.4540000   20.1380000   21.7240000  
O 14.0610000   21.1690000   21.4360000  
O 17.4070000   14.0230000   21.2880000  
O 15.0810000   13.0950000   22.3380000  
H 12.1420000   17.5730000   22.2640000  
H 11.9720000   19.3790000   22.3460000  
H 16.0060000   19.0120000   20.8640000  
H 17.2190000   13.1480000   21.5260000  
H 14.1020000   12.9360000   22.5830000  
C 17.8680000   16.8750000   20.8830000  
C 18.4890000   17.7630000   21.7540000  
C 19.7030000   18.2790000   21.4510000  
C 20.4920000   17.9250000   20.3410000  
C 19.8820000   17.0010000   19.5170000  
C 18.5230000   16.5920000   19.6310000  
C 18.1810000   18.1150000   23.1110000  
C 19.1920000   19.0120000   23.5230000  
N 20.1560000   19.0810000   22.5210000  
O 18.5170000   19.2690000   25.7350000  
C 19.4470000   19.5590000   24.8360000  
O 20.4340000   20.1200000   25.0820000  
O 20.6010000   16.6830000   18.4270000  
O 18.0470000   15.6930000   18.6920000  
H 17.2700000   17.8910000   23.6670000  
H 17.7730000   18.7560000   25.2870000  
H 21.1170000   19.4290000   22.5570000  
H 20.3210000   15.9450000   17.8860000  
H 17.1290000   15.3780000   18.8510000  
C 21.9420000   18.2940000   20.2610000  
C 22.8100000   17.7050000   21.2570000  
C 24.1570000   17.9160000   21.2120000  
C 24.7760000   18.6720000   20.2420000  
C 23.9340000   19.2960000   19.3250000  
C 22.5690000   19.1450000   19.3530000  
C 22.6180000   16.7150000   22.3000000  
C 23.8260000   16.5370000   22.8890000  
N 24.8040000   17.2430000   22.2000000  
O 22.9620000   14.8770000   24.3470000  
C 24.0830000   15.5800000   23.9760000  
O 25.1570000   15.3090000   24.4500000  
O 24.5300000   20.0130000   18.3000000  
O 21.8180000   19.8240000   18.3760000  
H 21.6680000   16.3050000   22.7240000  
H 22.1830000   15.2920000   23.8680000  
H 25.7720000   16.9670000   22.0990000  
H 23.8510000   20.7050000   18.1280000  
H 20.8380000   19.6790000   18.5250000  
H 25.8170000   18.7190000   20.2210000  
