76
110 
C 20.9490000   10.6900000   18.6950000  
C 20.3280000    9.5020000   19.2350000  
C 19.2430000    9.6320000   20.0680000  
C 18.5980000   10.8570000   20.3290000  
C 19.2340000   12.0520000   19.9020000  
C 20.3050000   11.9750000   19.0330000  
C 18.5020000    8.6050000   20.6180000  
C 17.4500000    9.3250000   21.2520000  
N 17.5420000   10.7060000   21.1420000  
O 16.4120000    7.2930000   22.1660000  
C 16.3120000    8.6490000   21.9640000  
O 15.2970000    9.2670000   22.3060000  
O 20.8870000   13.0910000   18.5490000  
O 21.8670000   10.6470000   17.9170000  
H 20.7760000    8.6020000   18.8940000  
H 18.7940000    7.5230000   20.6150000  
H 17.3830000    7.1780000   22.0100000  
H 20.5990000   13.8190000   19.0610000  
C 18.6030000   13.3160000   20.2450000  
C 18.6320000   13.7620000   21.5740000  
C 17.9350000   14.8540000   22.0050000  
C 17.4190000   15.7590000   21.0790000  
C 17.4020000   15.4000000   19.7170000  
C 17.8940000   14.1540000   19.2910000  
C 19.1390000   13.1860000   22.8250000  
C 18.7990000   14.1660000   23.8420000  
N 17.9940000   15.1530000   23.3100000  
O 20.0420000   13.0300000   25.5690000  
C 19.3700000   14.1210000   25.2030000  
O 19.3380000   15.0110000   25.9820000  
O 16.6950000   16.1650000   18.8570000  
O 17.7050000   13.7490000   17.9580000  
H 19.8460000   12.3540000   22.8890000  
H 19.8130000   12.3940000   24.8890000  
H 17.4960000   15.8540000   23.8520000  
H 16.5530000   15.7290000   18.0150000  
H 18.1700000   12.8750000   17.9480000  
C 16.6410000   16.9210000   21.4740000  
C 17.3240000   18.0850000   21.9410000  
C 16.5830000   19.2040000   22.3120000  
C 15.1790000   19.2780000   22.2540000  
C 14.5000000   18.1340000   21.7920000  
C 15.2090000   16.9360000   21.4410000  
C 18.6430000   18.2980000   22.3320000  
C 18.8000000   19.5800000   22.8630000  
N 17.4970000   20.0880000   22.8730000  
O 21.1130000   19.4550000   23.3770000  
C 20.0320000   20.2060000   23.4000000  
O 20.1180000   21.3350000   23.8160000  
O 13.1760000   18.1610000   21.6750000  
O 14.5310000   15.8060000   20.9980000  
H 19.4030000   17.4660000   22.1700000  
H 20.8840000   18.7660000   22.6890000  
H 17.1320000   20.8500000   23.4040000  
H 12.8740000   17.4580000   21.0910000  
H 15.1970000   15.0770000   20.8000000  
C 14.5340000   20.5940000   22.7420000  
C 14.8840000   21.8490000   22.2040000  
C 14.3850000   23.0520000   22.6960000  
C 13.5000000   23.0850000   23.7800000  
C 13.1820000   21.8520000   24.3430000  
C 13.6130000   20.6020000   23.8310000  
C 15.8980000   22.2010000   21.1890000  
C 15.8500000   23.6000000   21.0960000  
N 14.9190000   24.1500000   21.9800000  
O 17.3550000   23.6580000   19.2270000  
C 16.5940000   24.3920000   20.0740000  
O 16.4090000   25.5570000   19.8700000  
O 12.4420000   21.8090000   25.4590000  
O 13.2420000   19.3980000   24.4230000  
H 16.4680000   21.5060000   20.7110000  
H 17.2360000   22.8010000   19.6300000  
H 14.8640000   25.1330000   22.3090000  
H 12.0440000   20.8830000   25.4710000  
H 13.5500000   18.6560000   23.8300000  
H 13.0300000   24.0130000   24.0480000  
