76
110 
C 21.6210000   11.0670000   23.4930000  
C 21.6060000   10.0030000   22.5590000  
C 20.7290000    9.9940000   21.5240000  
C 19.8010000   11.0060000   21.2790000  
C 19.8650000   12.1630000   22.1490000  
C 20.6820000   12.2000000   23.2630000  
C 20.5540000    9.0480000   20.5150000  
C 19.5870000    9.5450000   19.6320000  
N 19.2150000   10.8230000   20.1050000  
O 19.7700000    7.6520000   18.0890000  
C 19.1500000    8.8180000   18.4050000  
O 18.2840000    9.2390000   17.6310000  
O 20.6490000   13.1600000   24.2860000  
O 22.4100000   11.0260000   24.4740000  
H 22.3770000    9.2520000   22.6580000  
H 21.0990000    8.1430000   20.3970000  
H 20.4920000    7.5260000   18.7010000  
H 19.9120000   13.7500000   24.1240000  
C 18.9920000   13.2740000   21.8300000  
C 17.9340000   13.5960000   22.6880000  
C 17.2170000   14.7420000   22.5050000  
C 17.4710000   15.6660000   21.5380000  
C 18.6260000   15.3760000   20.6360000  
C 19.3560000   14.1550000   20.7610000  
C 17.4040000   12.9230000   23.8180000  
C 16.3630000   13.6650000   24.3210000  
N 16.2710000   14.8220000   23.5000000  
O 15.5800000   12.1690000   26.0190000  
C 15.5230000   13.4360000   25.5110000  
O 14.8860000   14.3500000   26.0380000  
O 19.1720000   16.3100000   19.7030000  
O 20.4060000   13.9120000   19.9150000  
H 17.7360000   11.9840000   24.2690000  
H 16.2970000   11.8220000   25.5170000  
H 15.7090000   15.6140000   23.6920000  
H 19.7860000   15.8480000   19.1090000  
H 20.8300000   13.0490000   20.0020000  
C 16.6850000   16.9730000   21.4080000  
C 16.6880000   17.9780000   22.4280000  
C 15.8520000   19.0830000   22.2020000  
C 15.0830000   19.3810000   21.0510000  
C 15.1480000   18.3900000   19.9910000  
C 15.8800000   17.2240000   20.2830000  
C 17.4480000   18.1340000   23.6280000  
C 16.9850000   19.2910000   24.1870000  
N 16.0370000   19.8930000   23.2970000  
O 18.5110000   19.1870000   26.0650000  
C 17.5620000   19.9160000   25.4270000  
O 17.3060000   21.0730000   25.7500000  
O 14.4420000   18.6190000   18.8480000  
O 15.8560000   16.2300000   19.3760000  
H 18.2430000   17.5030000   24.0650000  
H 18.5050000   18.2940000   25.7090000  
H 15.5350000   20.7600000   23.4680000  
H 14.7010000   19.4830000   18.5660000  
H 16.4840000   15.5230000   19.6860000  
C 14.3060000   20.6280000   20.9390000  
C 14.9860000   21.8500000   20.5270000  
C 14.3240000   23.0380000   20.4100000  
C 12.9610000   23.2190000   20.6930000  
C 12.2910000   22.0390000   21.1250000  
C 12.9310000   20.7840000   21.2240000  
C 16.3690000   22.0870000   20.3080000  
C 16.4840000   23.4320000   19.9700000  
N 15.1730000   23.9960000   19.9850000  
O 18.7390000   23.3900000   19.6110000  
C 17.7040000   24.1370000   19.5060000  
O 17.7960000   25.2710000   19.0530000  
O 10.9870000   22.1890000   21.4970000  
O 12.2730000   19.6660000   21.6150000  
H 17.1300000   21.3120000   20.0960000  
H 18.3190000   22.6340000   19.9460000  
H 15.0100000   25.0070000   19.9330000  
H 10.6710000   21.2950000   21.7750000  
H 12.8680000   18.9310000   21.7000000  
H 12.5340000   24.2130000   20.5350000  
