76
110 
C  9.9870000   17.3330000   23.6640000  
C  9.9960000   17.0580000   25.1600000  
C 11.2150000   16.6830000   25.7460000  
C 12.4330000   16.6830000   25.0710000  
C 12.5250000   17.0330000   23.7170000  
C 11.3380000   17.2720000   22.9830000  
C 11.5410000   16.4010000   27.1060000  
C 12.9050000   16.0980000   27.0640000  
N 13.4140000   16.3020000   25.7890000  
O 13.0710000   15.6410000   29.3380000  
C 13.6550000   15.5650000   28.1740000  
O 14.7400000   14.9850000   28.0190000  
O 11.2450000   17.5550000   21.6510000  
O  9.0060000   17.6480000   23.0240000  
H  9.1190000   17.1890000   25.7050000  
H 10.8380000   16.1990000   27.9250000  
H 12.1620000   15.7480000   29.1840000  
H 12.0910000   17.2660000   21.2590000  
C 13.8090000   17.0050000   23.0210000  
C 14.1680000   15.9690000   22.1300000  
C 15.4570000   15.8770000   21.7260000  
C 16.5480000   16.6940000   22.0550000  
C 16.1800000   17.8300000   22.8140000  
C 14.8330000   17.9480000   23.3110000  
C 13.4940000   14.7590000   21.6450000  
C 14.4770000   13.9410000   21.1060000  
N 15.6690000   14.6840000   21.1700000  
O 13.0950000   12.1680000   20.9730000  
C 14.3230000   12.5700000   20.5940000  
O 15.0880000   12.0200000   19.8330000  
O 17.1330000   18.7380000   23.1770000  
O 14.3880000   18.9610000   24.0850000  
H 12.4920000   14.4210000   21.7910000  
H 12.7550000   12.8190000   21.5520000  
H 16.6110000   14.3130000   20.9410000  
H 16.5800000   19.5440000   23.2620000  
H 13.4670000   18.7060000   24.4170000  
C 17.9150000   16.4010000   21.5740000  
C 18.2020000   16.1740000   20.2030000  
C 19.4710000   15.9710000   19.7590000  
C 20.5950000   15.9590000   20.5510000  
C 20.3260000   16.1410000   21.9270000  
C 19.0450000   16.2620000   22.4740000  
C 17.3770000   16.3120000   19.0350000  
C 18.2020000   16.0630000   17.9200000  
N 19.5460000   15.9740000   18.3670000  
O 16.5990000   16.2650000   16.2240000  
C 17.8570000   16.0360000   16.4780000  
O 18.6520000   15.8070000   15.5740000  
O 21.3700000   16.4190000   22.7300000  
O 18.8720000   16.4330000   23.8740000  
H 16.3260000   16.5920000   19.0420000  
H 16.2180000   16.4730000   17.0790000  
H 20.3510000   15.8940000   17.8440000  
H 22.1960000   16.0270000   22.3660000  
H 17.9440000   16.5460000   24.0580000  
C 21.9630000   16.0050000   20.0740000  
C 22.6600000   17.2220000   20.1180000  
C 23.9460000   17.3480000   19.6710000  
C 24.7130000   16.2590000   19.1350000  
C 24.0420000   14.9800000   19.0870000  
C 22.6920000   14.8180000   19.6180000  
C 22.1430000   18.5490000   20.3720000  
C 23.1670000   19.4130000   20.0560000  
N 24.3110000   18.6580000   19.6440000  
O 21.9090000   21.3420000   20.6280000  
C 23.0390000   20.8630000   20.0670000  
O 23.9370000   21.6150000   19.8260000  
O 24.7240000   13.8980000   18.4930000  
O 22.0060000   13.6060000   19.6010000  
H 21.1280000   18.6990000   20.7800000  
H 21.4350000   20.5410000   20.7690000  
H 25.1130000   19.0120000   19.2500000  
H 24.0680000   13.1930000   18.3120000  
H 21.0730000   13.8830000   19.6180000  
H 25.6760000   16.4170000   18.6790000  
