76
110 
C 10.1470000   14.6660000   23.0120000  
C  9.7500000   13.6430000   22.0390000  
C 10.6950000   13.0120000   21.3380000  
C 12.0570000   13.3530000   21.3440000  
C 12.4760000   14.3480000   22.2510000  
C 11.5660000   14.9330000   23.0820000  
C 10.6150000   12.0510000   20.3170000  
C 11.8440000   11.9190000   19.7290000  
N 12.7660000   12.6830000   20.4230000  
O 11.1580000   10.3020000   18.0960000  
C 12.1560000   11.1280000   18.5390000  
O 13.2360000   11.1630000   18.0120000  
O 11.9990000   15.9480000   23.8870000  
O  9.4260000   15.3240000   23.7450000  
H  8.7130000   13.5110000   21.9590000  
H  9.6520000   11.7440000   19.9630000  
H 10.4550000   10.1730000   18.7440000  
H 12.8990000   16.1290000   23.6450000  
C 13.8810000   14.7430000   22.2260000  
C 14.2890000   15.8930000   21.5700000  
C 15.5840000   16.2820000   21.4450000  
C 16.6430000   15.6280000   22.0010000  
C 16.2740000   14.4350000   22.6910000  
C 14.9160000   14.0080000   22.8670000  
C 13.4680000   16.8200000   20.7830000  
C 14.2740000   17.8820000   20.4160000  
N 15.6210000   17.4870000   20.7500000  
O 12.7910000   19.1360000   19.0110000  
C 14.0050000   19.0720000   19.5560000  
O 14.8560000   19.9260000   19.2870000  
O 17.2400000   13.6550000   23.1990000  
O 14.6570000   12.8280000   23.4950000  
H 12.3940000   16.8610000   20.4410000  
H 12.3060000   18.3860000   19.3470000  
H 16.4660000   17.9840000   20.4550000  
H 16.8420000   12.8130000   23.5770000  
H 13.7000000   12.5840000   23.5700000  
C 18.0630000   16.1220000   21.7550000  
C 18.4010000   17.3580000   22.2890000  
C 19.6090000   17.9130000   22.0310000  
C 20.7050000   17.3070000   21.3410000  
C 20.4250000   15.9670000   20.8680000  
C 19.0740000   15.4200000   21.0290000  
C 17.5910000   18.2330000   23.0730000  
C 18.4770000   19.2750000   23.4610000  
N 19.7540000   19.0930000   22.7440000  
O 17.0100000   20.4050000   24.8360000  
C 18.2270000   20.3040000   24.4610000  
O 19.0120000   21.1440000   24.9070000  
O 21.3080000   15.1120000   20.2610000  
O 18.9020000   14.0800000   20.6860000  
H 16.6710000   18.0010000   23.5590000  
H 16.4680000   19.7230000   24.3150000  
H 20.5730000   19.7270000   22.7890000  
H 20.7710000   14.3430000   19.9880000  
H 18.0370000   13.8090000   21.0780000  
C 21.9410000   18.0480000   20.9780000  
C 22.9400000   18.3470000   21.9970000  
C 24.0950000   19.0770000   21.6740000  
C 24.2340000   19.5590000   20.3900000  
C 23.3550000   19.1810000   19.3810000  
C 22.1930000   18.4270000   19.6530000  
C 22.9390000   18.1000000   23.4280000  
C 24.1450000   18.6930000   23.9110000  
N 24.8120000   19.3370000   22.7780000  
O 23.9870000   17.7070000   26.0650000  
C 24.7930000   18.4500000   25.2270000  
O 25.9060000   18.7970000   25.5580000  
O 23.5770000   19.7230000   18.1140000  
O 21.1950000   18.2420000   18.7360000  
H 22.2950000   17.4130000   24.0150000  
H 23.1020000   17.7680000   25.6220000  
H 25.6240000   19.9210000   22.7870000  
H 22.7260000   19.6650000   17.5940000  
H 20.5790000   17.5790000   19.1690000  
H 25.1200000   20.1190000   20.2190000  
