76
110 
C 14.1500000   15.9540000   28.4400000  
C 14.6970000   17.0600000   29.3210000  
C 15.3740000   18.0850000   28.6450000  
C 15.7290000   18.1130000   27.3110000  
C 15.3340000   16.9810000   26.4310000  
C 14.5440000   16.0040000   27.0170000  
C 15.9200000   19.2120000   29.1830000  
C 16.6700000   19.8130000   28.1960000  
N 16.5070000   19.1230000   27.0120000  
O 17.4880000   21.4990000   29.6580000  
C 17.2750000   21.1080000   28.3650000  
O 17.6150000   21.8470000   27.4610000  
O 14.1440000   14.8920000   26.2810000  
O 13.3830000   15.1370000   28.9910000  
H 14.4110000   17.0370000   30.4050000  
H 15.8430000   19.4720000   30.2100000  
H 17.2210000   20.7740000   30.2280000  
H 14.6450000   14.9250000   25.3990000  
C 15.7740000   16.9410000   25.0890000  
C 16.6620000   15.9540000   24.6860000  
C 17.0220000   15.8860000   23.3820000  
C 16.4660000   16.6700000   22.3230000  
C 15.5940000   17.6850000   22.8020000  
C 15.1690000   17.7700000   24.1000000  
C 17.3490000   14.9200000   25.4290000  
C 18.0390000   14.2030000   24.4580000  
N 17.8600000   14.8090000   23.2130000  
O 19.1110000   12.5750000   25.9370000  
C 18.9030000   12.9240000   24.6560000  
O 19.2950000   12.3190000   23.6530000  
O 15.0770000   18.5150000   21.8740000  
O 14.2950000   18.8000000   24.3960000  
H 17.4140000   14.7640000   26.4910000  
H 18.5980000   13.1300000   26.4530000  
H 18.4570000   14.5470000   22.3780000  
H 14.5040000   19.2520000   22.2390000  
H 14.0050000   18.8250000   25.3810000  
C 17.1470000   16.5420000   20.9780000  
C 17.0830000   15.3340000   20.2510000  
C 17.7880000   15.2190000   19.0640000  
C 18.5070000   16.2150000   18.4640000  
C 18.5400000   17.4580000   19.1440000  
C 17.8540000   17.6480000   20.3680000  
C 16.3910000   14.1360000   20.5800000  
C 16.6190000   13.3220000   19.4730000  
N 17.5050000   13.9600000   18.5760000  
O 15.1580000   11.4320000   20.1100000  
C 16.0050000   12.0190000   19.1960000  
O 16.3560000   11.3860000   18.1980000  
O 19.2700000   18.5040000   18.6610000  
O 17.8090000   18.8880000   21.0030000  
H 15.7200000   13.9360000   21.4230000  
H 15.1880000   12.0370000   20.9240000  
H 17.6390000   13.6640000   17.6000000  
H 19.6710000   18.3270000   17.7710000  
H 17.1680000   18.7240000   21.7430000  
C 19.2130000   15.9570000   17.1600000  
C 18.9810000   16.8390000   16.0880000  
C 19.6860000   16.7140000   14.9170000  
C 20.6070000   15.7150000   14.7420000  
C 20.9540000   14.8670000   15.8570000  
C 20.2620000   15.0250000   17.0430000  
C 17.9480000   17.8160000   15.8370000  
C 18.1310000   18.2960000   14.6030000  
N 19.1710000   17.5830000   13.9600000  
O 16.1970000   19.7740000   14.6520000  
C 17.2650000   19.3400000   13.9200000  
O 17.4090000   19.5790000   12.7340000  
O 21.8580000   13.8200000   15.6290000  
O 20.5500000   14.1850000   18.0950000  
H 17.2380000   18.1820000   16.5110000  
H 16.5070000   19.3300000   15.4350000  
H 19.2330000   17.6330000   12.9580000  
H 21.9230000   13.3060000   16.4620000  
H 19.8150000   14.1450000   18.7250000  
H 21.1770000   15.6300000   13.7760000  
