76
110 
C 10.2630000   15.6190000   21.4290000  
C  9.5760000   15.2810000   22.7000000  
C 10.2170000   15.5860000   23.8720000  
C 11.5260000   15.9820000   23.9050000  
C 12.2590000   16.2500000   22.7200000  
C 11.6280000   16.1580000   21.4740000  
C  9.7450000   15.4430000   25.2380000  
C 10.9160000   15.6860000   25.9960000  
N 11.9800000   16.0110000   25.1880000  
O  9.8440000   15.1590000   28.0810000  
C 10.9110000   15.6140000   27.4720000  
O 11.8370000   16.0910000   28.0710000  
O 12.2750000   16.5180000   20.2920000  
O  9.6930000   15.3190000   20.3600000  
H  8.5870000   14.8780000   22.6870000  
H  8.7790000   15.1710000   25.5630000  
H  9.1550000   15.1980000   27.4420000  
H 13.1120000   16.7620000   20.6370000  
C 13.6980000   16.4780000   22.7670000  
C 14.6330000   15.4060000   22.7890000  
C 15.9730000   15.5770000   22.6390000  
C 16.5930000   16.8080000   22.4370000  
C 15.7210000   17.9000000   22.3990000  
C 14.2820000   17.7490000   22.6300000  
C 14.3890000   14.0150000   22.9400000  
C 15.6530000   13.4050000   22.8940000  
N 16.6300000   14.4100000   22.6770000  
O 14.7770000   11.2180000   22.7680000  
C 15.9380000   11.9240000   22.9800000  
O 16.9890000   11.3170000   23.0760000  
O 16.3010000   19.1030000   22.1070000  
O 13.5060000   18.8300000   22.5090000  
H 13.3980000   13.6490000   23.1830000  
H 14.1340000   11.9210000   22.5820000  
H 17.6170000   14.2540000   22.6490000  
H 15.5550000   19.7310000   22.0340000  
H 12.5840000   18.5760000   22.6590000  
C 18.0010000   16.9310000   21.9790000  
C 18.4060000   16.3830000   20.7310000  
C 19.7020000   16.5000000   20.3140000  
C 20.7480000   17.1440000   20.9940000  
C 20.3240000   17.8160000   22.1360000  
C 19.0260000   17.6850000   22.6460000  
C 17.6740000   15.6140000   19.7440000  
C 18.5970000   15.4600000   18.6830000  
N 19.8310000   15.9380000   19.0320000  
O 16.8800000   14.5820000   17.1690000  
C 18.1530000   15.0620000   17.3630000  
O 18.8990000   15.1040000   16.3670000  
O 21.1990000   18.4330000   22.9910000  
O 18.7260000   18.2340000   23.8150000  
H 16.6050000   15.4240000   19.7160000  
H 16.5260000   14.4940000   18.0920000  
H 20.6570000   15.9600000   18.4370000  
H 22.0740000   18.5370000   22.6080000  
H 17.7200000   18.3620000   23.8200000  
C 22.2380000   17.0660000   20.6130000  
C 22.9550000   18.1760000   20.1850000  
C 24.3180000   18.0940000   19.9120000  
C 25.0410000   16.8890000   19.9520000  
C 24.3090000   15.7340000   20.2840000  
C 22.9170000   15.8020000   20.5440000  
C 22.6060000   19.5520000   19.9210000  
C 23.7330000   20.2070000   19.4130000  
N 24.8120000   19.3030000   19.4770000  
O 22.5510000   22.2690000   19.1690000  
C 23.7590000   21.6670000   19.0650000  
O 24.7920000   22.2700000   18.8510000  
O 24.9300000   14.5220000   20.4590000  
O 22.2300000   14.6970000   20.9250000  
H 21.6300000   19.9590000   19.9000000  
H 21.8090000   21.7270000   19.4620000  
H 25.7320000   19.5310000   19.0640000  
H 24.2890000   13.7860000   20.4880000  
H 21.4140000   14.9410000   21.3930000  
H 26.1180000   16.8670000   19.7490000  
