76
110 
C 10.0290000   14.7830000   21.7170000  
C 10.0100000   13.4450000   21.0990000  
C 11.1660000   12.7280000   21.0170000  
C 12.4370000   13.2180000   21.5120000  
C 12.4980000   14.4940000   22.1000000  
C 11.3630000   15.2680000   22.1680000  
C 11.5140000   11.4560000   20.5800000  
C 12.8870000   11.2480000   20.8050000  
N 13.4530000   12.3500000   21.3760000  
O 12.8640000    9.1640000   19.6510000  
C 13.6560000   10.1000000   20.2470000  
O 14.8550000    9.8970000   20.3240000  
O 11.3180000   16.5010000   22.7220000  
O  8.9630000   15.3680000   21.6780000  
H  9.0840000   13.0300000   20.7620000  
H 10.8950000   10.7680000   20.0930000  
H 11.9850000    9.5810000   19.5310000  
H 12.2080000   16.7910000   22.8100000  
C 13.8950000   15.0340000   22.2320000  
C 14.5660000   15.1650000   21.0230000  
C 15.8820000   15.6500000   21.0040000  
C 16.5240000   16.0500000   22.1970000  
C 15.7690000   15.9770000   23.4700000  
C 14.4620000   15.4130000   23.4850000  
C 14.1100000   15.0700000   19.7000000  
C 15.2450000   15.4830000   18.9040000  
N 16.3530000   15.8640000   19.7280000  
O 14.0690000   15.1970000   16.8860000  
C 15.2220000   15.5620000   17.4270000  
O 16.1510000   15.8720000   16.7080000  
O 16.2750000   16.5180000   24.6040000  
O 13.6420000   15.4100000   24.5690000  
H 13.2220000   14.5080000   19.2980000  
H 13.4430000   15.0980000   17.4880000  
H 17.2290000   16.2230000   19.4010000  
H 15.7120000   16.4680000   25.3580000  
H 12.7690000   15.1940000   24.1840000  
C 17.9290000   16.5360000   22.1720000  
C 18.2350000   17.7090000   21.3500000  
C 19.5040000   18.2020000   21.2810000  
C 20.5500000   17.7190000   21.9850000  
C 20.3330000   16.5500000   22.7360000  
C 19.0750000   15.9470000   22.8170000  
C 17.3510000   18.5670000   20.6150000  
C 18.1090000   19.6510000   20.1870000  
N 19.4450000   19.4370000   20.6360000  
O 16.4320000   20.9540000   19.0000000  
C 17.6930000   20.8870000   19.3600000  
O 18.5150000   21.8090000   19.0620000  
O 21.3730000   16.0270000   23.4570000  
O 18.9080000   14.8210000   23.5660000  
H 16.2930000   18.4920000   20.5490000  
H 16.1320000   20.1400000   19.3830000  
H 20.1460000   20.1650000   20.6180000  
H 22.2340000   16.4520000   23.2750000  
H 18.0520000   14.7220000   23.9300000  
C 21.8470000   18.5000000   22.0540000  
C 22.3240000   18.9890000   23.2680000  
C 23.6350000   19.5740000   23.4090000  
C 24.5290000   19.6770000   22.3770000  
C 23.9980000   19.3470000   21.1100000  
C 22.7180000   18.7120000   20.9580000  
C 21.8360000   18.8330000   24.6220000  
C 22.7750000   19.3820000   25.4860000  
N 23.9510000   19.7540000   24.7520000  
O 21.4550000   18.9500000   27.3720000  
C 22.6140000   19.3510000   26.9410000  
O 23.5680000   19.6300000   27.6590000  
O 24.7820000   19.4540000   20.0340000  
O 22.4100000   18.2230000   19.7000000  
H 20.9280000   18.4300000   24.9130000  
H 20.8980000   18.5880000   26.6990000  
H 24.7400000   20.2750000   25.0860000  
H 24.3360000   19.0750000   19.2420000  
H 21.5380000   17.9020000   19.8710000  
H 25.5690000   20.0660000   22.4560000  
