76
110 
C 12.4990000   10.6010000   20.9690000  
C 11.3820000   11.2260000   20.2330000  
C 11.5370000   12.4110000   19.5920000  
C 12.6810000   13.2230000   19.6830000  
C 13.8400000   12.6500000   20.3900000  
C 13.7220000   11.4260000   20.9560000  
C 10.5440000   13.2120000   18.9440000  
C 11.1490000   14.4190000   18.6640000  
N 12.4950000   14.4090000   19.1240000  
O  9.3200000   15.6340000   17.7580000  
C 10.6010000   15.6120000   18.0770000  
O 11.2090000   16.6430000   17.9810000  
O 14.7440000   10.8370000   21.6300000  
O 12.4300000    9.4760000   21.4940000  
H 10.5260000   10.6170000   20.1750000  
H  9.5430000   12.9040000   18.8010000  
H  9.1530000   14.6660000   17.7630000  
H 15.3340000   11.5210000   21.7970000  
C 14.9960000   13.5170000   20.6060000  
C 15.1960000   14.0710000   21.8930000  
C 16.0770000   15.0710000   22.0810000  
C 16.9650000   15.6450000   21.1610000  
C 16.8210000   15.0760000   19.8650000  
C 15.8200000   14.0700000   19.5770000  
C 14.4770000   13.9060000   23.0660000  
C 15.1660000   14.6320000   24.0370000  
N 16.1800000   15.3740000   23.4670000  
O 13.7200000   13.8350000   25.8130000  
C 14.7560000   14.6830000   25.4500000  
O 15.2660000   15.3590000   26.3100000  
O 17.5500000   15.4090000   18.8070000  
O 15.6090000   13.7440000   18.2570000  
H 13.6240000   13.2680000   23.2040000  
H 13.5840000   13.2600000   25.0620000  
H 16.6830000   16.1210000   23.8840000  
H 17.1280000   14.9510000   18.0680000  
H 14.9730000   13.0700000   18.1210000  
C 17.9780000   16.6260000   21.5440000  
C 19.1300000   16.4380000   22.3360000  
C 20.0080000   17.4230000   22.6700000  
C 19.7890000   18.7610000   22.3480000  
C 18.6230000   19.0500000   21.6780000  
C 17.7670000   17.9930000   21.2370000  
C 19.5060000   15.2430000   23.0480000  
C 20.4740000   15.6640000   24.0020000  
N 20.7650000   17.0340000   23.7610000  
O 20.6340000   13.5130000   25.0410000  
C 20.9760000   14.8380000   25.1480000  
O 21.5760000   15.3380000   26.0460000  
O 18.3380000   20.3160000   21.2870000  
O 16.6440000   18.3370000   20.5000000  
H 19.2580000   14.2410000   22.8090000  
H 20.0640000   13.6040000   24.2920000  
H 21.5600000   17.5570000   24.1120000  
H 19.1400000   20.8660000   21.4730000  
H 15.9880000   17.6120000   20.6750000  
C 20.6140000   19.9230000   22.8590000  
C 21.3580000   20.7240000   21.9790000  
C 21.9810000   21.8400000   22.4250000  
C 21.8310000   22.3770000   23.7210000  
C 20.9950000   21.6620000   24.6000000  
C 20.3680000   20.4990000   24.1810000  
C 21.8960000   20.5020000   20.5980000  
C 22.8460000   21.5680000   20.3920000  
N 22.7800000   22.4360000   21.4830000  
O 23.5730000   20.6810000   18.2930000  
C 23.6740000   21.7250000   19.1750000  
O 24.4090000   22.6610000   18.9080000  
O 20.6140000   22.1800000   25.8040000  
O 19.5770000   19.7420000   25.0510000  
H 21.7700000   19.6700000   19.9720000  
H 22.8390000   20.1160000   18.6060000  
H 23.3910000   23.1560000   21.5570000  
H 20.0860000   21.5090000   26.2550000  
H 19.1190000   19.0810000   24.5250000  
H 22.2420000   23.3520000   24.0030000  
