76
110 
C 12.3120000   11.4020000   20.3890000  
C 10.9710000   12.0090000   20.3710000  
C 10.8060000   13.3550000   20.2380000  
C 11.8670000   14.2210000   20.3060000  
C 13.2300000   13.7570000   20.4630000  
C 13.4370000   12.3690000   20.4330000  
C  9.6430000   14.1660000   20.2490000  
C 10.0580000   15.4590000   20.2520000  
N 11.4560000   15.4970000   20.3320000  
O  7.8470000   16.3680000   19.9740000  
C  9.1560000   16.5820000   20.0980000  
O  9.6210000   17.6570000   19.9230000  
O 14.6980000   11.8590000   20.3320000  
O 12.5550000   10.2320000   20.2770000  
H 10.1680000   11.3350000   20.3820000  
H  8.6900000   13.7400000   20.2940000  
H  7.7540000   15.6240000   20.5980000  
H 15.2320000   12.6600000   20.2740000  
C 14.3420000   14.6390000   20.7180000  
C 14.8100000   14.7630000   22.0340000  
C 15.9250000   15.4390000   22.3300000  
C 16.6950000   16.1530000   21.4240000  
C 16.3070000   16.0900000   20.0400000  
C 15.1120000   15.3260000   19.7370000  
C 14.3380000   14.1770000   23.2890000  
C 15.1930000   14.5730000   24.2820000  
N 16.1910000   15.3710000   23.6950000  
O 14.3170000   13.2280000   25.9500000  
C 15.1690000   14.2010000   25.6980000  
O 15.9010000   14.6830000   26.5500000  
O 17.0210000   16.5310000   19.0010000  
O 14.7340000   15.2130000   18.4410000  
H 13.4080000   13.6220000   23.5550000  
H 13.9560000   13.0290000   25.1210000  
H 16.9110000   15.8880000   24.1830000  
H 16.6530000   16.0490000   18.2260000  
H 13.9040000   14.6990000   18.4290000  
C 17.8840000   16.9100000   21.9420000  
C 19.1380000   16.2790000   22.3180000  
C 20.1640000   17.0690000   22.7080000  
C 20.1110000   18.4080000   22.8920000  
C 18.7930000   19.0010000   22.7610000  
C 17.6770000   18.2530000   22.2700000  
C 19.7010000   14.9320000   22.1280000  
C 21.0600000   14.9870000   22.3840000  
N 21.3470000   16.4000000   22.5490000  
O 21.4520000   12.6330000   22.4380000  
C 22.0070000   13.8770000   22.5320000  
O 23.2110000   14.0640000   22.8690000  
O 18.7450000   20.3370000   23.0620000  
O 16.4230000   18.7900000   22.1170000  
H 19.0580000   14.0660000   21.9330000  
H 20.5370000   12.5880000   22.2780000  
H 22.3390000   16.7070000   22.6620000  
H 19.6060000   20.6050000   23.4420000  
H 15.9630000   18.3340000   21.3730000  
C 21.3300000   19.2640000   23.0430000  
C 21.7510000   20.0190000   21.9450000  
C 22.9050000   20.7120000   21.9610000  
C 23.7530000   20.7020000   23.1440000  
C 23.3410000   20.0040000   24.2780000  
C 22.0810000   19.2740000   24.2880000  
C 21.1950000   20.1730000   20.6190000  
C 22.0820000   20.9370000   19.9000000  
N 23.1230000   21.4070000   20.7650000  
O 21.2510000   20.4770000   17.7590000  
C 22.0320000   21.2790000   18.4530000  
O 22.7970000   22.0710000   17.9460000  
O 24.1510000   19.8980000   25.3620000  
O 21.6650000   18.4680000   25.2980000  
H 20.3570000   19.6860000   20.1900000  
H 20.8860000   19.9910000   18.5330000  
H 23.9380000   21.8950000   20.5490000  
H 23.7390000   19.2700000   25.9710000  
H 20.8440000   17.9600000   24.9800000  
H 24.7190000   21.2180000   23.1430000  
