76
110 
C 22.6290000   11.2620000   22.1890000  
C 22.1180000   10.3730000   23.2840000  
C 20.9190000   10.6280000   23.9110000  
C 20.0560000   11.6060000   23.5480000  
C 20.3900000   12.3400000   22.3040000  
C 21.6210000   12.2560000   21.6470000  
C 20.4450000   10.2150000   25.1770000  
C 19.3740000   11.0480000   25.4790000  
N 19.1580000   11.9380000   24.4100000  
O 19.1880000   10.2730000   27.8170000  
C 18.7290000   11.1190000   26.8250000  
O 17.8610000   11.9450000   27.1160000  
O 21.9920000   13.0210000   20.6420000  
O 23.7100000   11.0070000   21.7080000  
H 22.8200000    9.5870000   23.6430000  
H 20.9790000    9.4930000   25.8510000  
H 19.7650000    9.6100000   27.3710000  
H 21.4060000   13.8470000   20.6580000  
C 19.4480000   13.4080000   21.9880000  
C 19.7400000   14.6750000   22.4030000  
C 18.8240000   15.6010000   22.2950000  
C 17.5520000   15.5670000   21.7670000  
C 17.2930000   14.2850000   21.0610000  
C 18.2370000   13.1840000   21.2520000  
C 20.8770000   15.2500000   23.0600000  
C 20.5040000   16.5600000   23.3450000  
N 19.2190000   16.7990000   22.8640000  
O 22.6580000   17.3220000   23.9870000  
C 21.3840000   17.6490000   23.7520000  
O 21.0300000   18.8470000   23.7340000  
O 16.0790000   14.0810000   20.4230000  
O 17.9130000   11.8930000   20.8900000  
H 21.8380000   14.8430000   23.1460000  
H 22.7970000   16.3820000   23.7510000  
H 18.6780000   17.6760000   22.7220000  
H 16.0810000   13.1150000   20.2340000  
H 18.7920000   11.4570000   20.7750000  
C 16.5950000   16.7210000   21.6070000  
C 16.9590000   17.7180000   20.7340000  
C 16.2090000   18.8170000   20.5700000  
C 14.9020000   19.0640000   21.1650000  
C 14.4650000   18.0350000   21.9670000  
C 15.2720000   16.8540000   22.1430000  
C 18.2000000   17.8700000   20.0170000  
C 18.0130000   19.0460000   19.2630000  
N 16.7880000   19.6480000   19.6250000  
O 20.1480000   18.8880000   18.2840000  
C 18.9950000   19.5920000   18.3130000  
O 18.8590000   20.6090000   17.7090000  
O 13.2830000   18.1050000   22.5680000  
O 14.8400000   15.8560000   22.9870000  
H 18.9800000   17.1590000   19.9100000  
H 19.9130000   17.9870000   18.6470000  
H 16.3300000   20.4590000   19.2030000  
H 13.1440000   17.2120000   23.0310000  
H 15.5160000   15.2390000   22.8540000  
C 14.1820000   20.3400000   20.9380000  
C 12.9670000   20.2810000   20.2090000  
C 12.1140000   21.3560000   20.1020000  
C 12.4900000   22.6150000   20.5760000  
C 13.7240000   22.7350000   21.2340000  
C 14.5930000   21.6660000   21.4250000  
C 12.2860000   19.1910000   19.5270000  
C 11.0430000   19.6490000   19.1170000  
N 10.9530000   21.0140000   19.4260000  
O 10.4120000   17.5150000   18.2550000  
C  9.9820000   18.7990000   18.4540000  
O  8.9040000   19.1170000   18.0820000  
O 14.1500000   23.9850000   21.6140000  
O 15.8250000   21.9070000   21.9640000  
H 12.6890000   18.1760000   19.4620000  
H 11.1430000   17.2640000   18.8360000  
H 10.1920000   21.6920000   19.1030000  
H 15.0950000   23.9790000   21.8680000  
H 16.1660000   21.0780000   22.3400000  
H 11.8110000   23.4450000   20.5060000  
