76
110 
C  9.7580000   14.7190000   20.9670000  
C  9.1990000   15.2700000   22.1740000  
C 10.1100000   15.7060000   23.1300000  
C 11.5430000   15.6470000   22.9980000  
C 12.1240000   15.1610000   21.7920000  
C 11.2290000   14.7450000   20.7850000  
C  9.8830000   16.3020000   24.3780000  
C 11.1020000   16.7460000   24.8700000  
N 12.1050000   16.3050000   24.0320000  
O 10.1730000   17.8510000   26.7040000  
C 11.2980000   17.6150000   26.0420000  
O 12.3580000   17.9910000   26.3810000  
O 11.6290000   14.3160000   19.5910000  
O  9.0150000   14.2110000   20.1090000  
H  8.1550000   15.2410000   22.3470000  
H  8.9340000   16.6020000   24.7160000  
H  9.5680000   17.1470000   26.4930000  
H 12.5490000   14.0870000   19.6770000  
C 13.5550000   15.4190000   21.5010000  
C 14.6220000   14.7270000   22.1250000  
C 15.9030000   15.1000000   21.8500000  
C 16.3110000   16.2160000   21.2120000  
C 15.3200000   16.8750000   20.5060000  
C 13.9700000   16.4330000   20.5490000  
C 14.7030000   13.5050000   22.8940000  
C 16.0020000   13.0720000   22.9000000  
N 16.7390000   14.1800000   22.4130000  
O 15.6720000   10.9540000   23.9650000  
C 16.5400000   11.8350000   23.5020000  
O 17.7690000   11.6910000   23.5730000  
O 15.6040000   18.0080000   19.7600000  
O 13.0750000   17.1870000   19.7920000  
H 13.8470000   13.0010000   23.4280000  
H 14.7530000   11.2230000   23.6910000  
H 17.7200000   14.2040000   22.3150000  
H 14.7690000   18.4110000   19.3810000  
H 12.2500000   16.7260000   19.8550000  
C 17.7620000   16.6110000   21.2550000  
C 18.8370000   15.9210000   20.6320000  
C 20.1090000   16.3300000   20.8440000  
C 20.5520000   17.3930000   21.7080000  
C 19.4670000   18.0490000   22.3050000  
C 18.0940000   17.7450000   22.0680000  
C 18.8840000   14.7260000   19.7780000  
C 20.2270000   14.4250000   19.6090000  
N 20.9860000   15.3760000   20.3520000  
O 20.0000000   12.4500000   18.2120000  
C 20.8420000   13.2430000   18.8700000  
O 22.0390000   13.0090000   19.0100000  
O 19.7110000   19.0090000   23.2510000  
O 17.1580000   18.5010000   22.6210000  
H 18.0360000   14.2120000   19.4080000  
H 19.0920000   12.8700000   18.1490000  
H 21.9260000   15.4520000   20.4950000  
H 20.6270000   19.3860000   23.2120000  
H 16.2920000   18.1040000   22.4700000  
C 22.0270000   17.7980000   21.8200000  
C 22.4300000   19.0070000   21.1870000  
C 23.7180000   19.4150000   21.2380000  
C 24.7610000   18.7520000   21.8040000  
C 24.4080000   17.5190000   22.4240000  
C 23.0530000   17.0310000   22.4300000  
C 21.6320000   19.9970000   20.4810000  
C 22.5330000   21.0530000   20.1520000  
N 23.8390000   20.6490000   20.6670000  
O 20.9730000   22.3530000   18.9500000  
C 22.2620000   22.1980000   19.3050000  
O 23.1730000   22.9660000   19.0320000  
O 25.3170000   16.7760000   23.0520000  
O 22.6920000   15.8970000   23.1890000  
H 20.6420000   19.8860000   20.1950000  
H 20.5480000   21.4970000   19.1620000  
H 24.7000000   21.0780000   20.5210000  
H 24.7760000   16.1200000   23.5370000  
H 21.7900000   15.7120000   23.1890000  
H 25.7610000   19.1880000   21.8810000  
