76
110 
C 15.6690000    9.2200000   21.5760000  
C 16.8570000    8.3880000   21.2190000  
C 18.0380000    9.1290000   21.0060000  
C 18.0720000   10.5470000   20.8310000  
C 16.9940000   11.3610000   21.2510000  
C 15.8120000   10.6940000   21.5670000  
C 19.2950000    8.6760000   20.6160000  
C 20.0460000    9.7540000   20.3170000  
N 19.3080000   10.9500000   20.4420000  
O 22.2080000    8.5750000   19.7790000  
C 21.4180000    9.7290000   19.7370000  
O 21.9550000   10.7260000   19.2870000  
O 14.6230000   11.3140000   21.8920000  
O 14.6330000    8.6030000   21.8790000  
H 16.8170000    7.3110000   21.2040000  
H 19.5120000    7.6550000   20.4630000  
H 21.7960000    7.9990000   20.4490000  
H 14.7330000   12.2580000   21.8740000  
C 17.1570000   12.7880000   21.5030000  
C 16.9380000   13.6700000   20.4560000  
C 17.0750000   15.0550000   20.6480000  
C 17.5130000   15.6620000   21.8830000  
C 17.8610000   14.6990000   22.9190000  
C 17.6170000   13.3330000   22.7840000  
C 16.3940000   13.5520000   19.1360000  
C 16.3650000   14.8720000   18.6630000  
N 16.7580000   15.7960000   19.6190000  
O 16.0650000   14.2500000   16.4220000  
C 16.0910000   15.3400000   17.2900000  
O 15.9980000   16.4840000   16.9700000  
O 18.4170000   15.0940000   24.1290000  
O 17.9480000   12.4240000   23.7230000  
H 16.2390000   12.6700000   18.5010000  
H 16.4830000   13.4790000   16.8630000  
H 16.9010000   16.7990000   19.4580000  
H 18.8310000   14.3280000   24.6560000  
H 17.7110000   11.5700000   23.3510000  
C 17.6630000   17.1470000   22.0830000  
C 16.4710000   17.8870000   21.9830000  
C 16.5440000   19.2460000   22.0550000  
C 17.6980000   20.0150000   22.2770000  
C 18.9200000   19.2300000   22.3750000  
C 18.9290000   17.7890000   22.2850000  
C 15.1290000   17.5370000   21.5850000  
C 14.5040000   18.7450000   21.3640000  
N 15.3160000   19.7720000   21.7000000  
O 12.6280000   17.6630000   20.4750000  
C 13.2060000   18.8500000   20.7980000  
O 12.6540000   19.9090000   20.5850000  
O 20.1630000   19.8340000   22.7300000  
O 20.1280000   17.1260000   22.3740000  
H 14.7460000   16.5600000   21.3110000  
H 13.2500000   16.9750000   20.6420000  
H 15.0410000   20.7090000   21.6470000  
H 20.7750000   19.0970000   22.8420000  
H 19.8700000   16.2110000   22.4690000  
C 17.8300000   21.5040000   22.5000000  
C 17.3970000   22.1180000   23.6990000  
C 17.5640000   23.4620000   23.8560000  
C 18.1850000   24.3160000   22.9120000  
C 18.5840000   23.7410000   21.6370000  
C 18.3790000   22.3370000   21.5130000  
C 16.7710000   21.5750000   24.8790000  
C 16.4990000   22.6970000   25.7350000  
N 17.0990000   23.7920000   25.1150000  
O 15.2990000   21.5470000   27.4900000  
C 15.6570000   22.7170000   26.9530000  
O 15.3410000   23.7740000   27.4230000  
O 19.2650000   24.4890000   20.7270000  
O 18.7220000   21.7310000   20.3080000  
H 16.4410000   20.5670000   25.1370000  
H 15.7040000   20.8860000   26.9030000  
H 16.9960000   24.6850000   25.5010000  
H 19.6660000   23.8770000   20.0980000  
H 18.0630000   21.0450000   20.2360000  
H 18.2500000   25.4070000   23.0100000  
