76
110 
C 18.1400000   17.0390000   29.1910000  
C 19.2770000   16.1870000   29.4630000  
C 19.9050000   15.5810000   28.4190000  
C 19.7090000   16.0120000   27.0860000  
C 18.5800000   16.8210000   26.7930000  
C 17.7410000   17.2600000   27.7930000  
C 21.0480000   14.6940000   28.3970000  
C 21.4400000   14.6100000   27.0530000  
N 20.5620000   15.4400000   26.2680000  
O 23.4190000   13.3070000   27.5610000  
C 22.7030000   13.9930000   26.6100000  
O 23.2080000   14.0840000   25.5180000  
O 16.6070000   18.0310000   27.6160000  
O 17.5220000   17.5420000   30.1180000  
H 19.4950000   16.0330000   30.4510000  
H 21.5510000   14.3480000   29.3130000  
H 22.8970000   13.4470000   28.3990000  
H 16.7440000   18.4930000   26.7330000  
C 18.2500000   16.9390000   25.3720000  
C 17.3460000   16.0580000   24.7860000  
C 17.1490000   16.0760000   23.4110000  
C 17.6350000   16.9860000   22.5500000  
C 18.6390000   17.8320000   23.0560000  
C 18.9340000   17.7940000   24.4340000  
C 16.4090000   15.2310000   25.4810000  
C 15.6430000   14.7280000   24.4790000  
N 16.0640000   15.2400000   23.1850000  
O 14.3590000   13.2800000   25.8740000  
C 14.5620000   13.6900000   24.6270000  
O 13.9960000   13.2030000   23.6430000  
O 19.2610000   18.7280000   22.3140000  
O 19.9960000   18.5770000   24.8690000  
H 16.3160000   15.0960000   26.5670000  
H 14.9410000   13.9200000   26.4220000  
H 15.5840000   15.0390000   22.2940000  
H 19.5210000   19.3720000   23.0100000  
H 20.5350000   17.9600000   25.3960000  
C 17.3130000   16.8450000   21.1040000  
C 15.9950000   16.9260000   20.6290000  
C 15.7060000   16.7100000   19.3140000  
C 16.6120000   16.4170000   18.3000000  
C 17.9680000   16.3230000   18.7540000  
C 18.2720000   16.4280000   20.1080000  
C 14.7500000   17.2510000   21.2930000  
C 13.7250000   17.2490000   20.3350000  
N 14.3350000   16.8430000   19.1370000  
O 11.9380000   17.8330000   21.7700000  
C 12.2690000   17.4050000   20.5530000  
O 11.4620000   17.2010000   19.6770000  
O 18.9330000   15.9630000   17.8340000  
O 19.5280000   16.1920000   20.6400000  
H 14.5830000   17.3390000   22.3910000  
H 12.6590000   17.5980000   22.3520000  
H 13.8510000   16.9150000   18.2470000  
H 18.7510000   16.3080000   16.9320000  
H 19.8110000   16.8150000   21.3050000  
C 16.2160000   16.2110000   16.8280000  
C 16.5540000   17.1430000   15.8030000  
C 16.1280000   16.9820000   14.4940000  
C 15.4600000   15.8360000   14.1190000  
C 15.0780000   14.9260000   15.1240000  
C 15.5050000   15.0620000   16.4540000  
C 17.2710000   18.3790000   15.9220000  
C 17.2340000   18.9600000   14.6500000  
N 16.6140000   18.0430000   13.7330000  
O 18.3280000   20.9220000   15.3180000  
C 17.8280000   20.2630000   14.2470000  
O 17.7030000   20.7970000   13.1900000  
O 14.3300000   13.8620000   14.7760000  
O 15.0660000   14.1230000   17.3720000  
H 17.6200000   18.8560000   16.8810000  
H 18.2410000   20.2670000   16.0100000  
H 16.6870000   18.0210000   12.7290000  
H 14.0960000   13.2960000   15.5440000  
H 15.4920000   14.3730000   18.2090000  
H 15.1450000   15.7670000   13.1420000  
