76
110 
C 14.2780000   11.4290000   17.3190000  
C 13.6040000   10.3450000   18.1100000  
C 13.5670000   10.2700000   19.4790000  
C 14.2280000   11.2540000   20.2980000  
C 14.9380000   12.3780000   19.6260000  
C 14.9180000   12.4260000   18.2370000  
C 12.9010000    9.4410000   20.3450000  
C 13.2500000    9.9150000   21.6590000  
N 14.0110000   11.0720000   21.6100000  
O 11.6680000    8.4270000   22.6710000  
C 12.5340000    9.4860000   22.8420000  
O 12.6280000   10.0790000   23.9310000  
O 15.5440000   13.4370000   17.5360000  
O 14.3010000   11.5180000   16.0740000  
H 13.0550000    9.6450000   17.5010000  
H 12.1930000    8.7020000   19.9910000  
H 11.6880000    8.1780000   21.7210000  
H 15.9390000   13.9940000   18.2060000  
C 15.4430000   13.5550000   20.3230000  
C 16.7980000   13.8740000   20.2510000  
C 17.2700000   14.9610000   20.8380000  
C 16.5070000   15.9690000   21.5090000  
C 15.1310000   15.7020000   21.5970000  
C 14.6170000   14.5130000   21.0400000  
C 17.9120000   13.1070000   19.7450000  
C 18.9960000   13.8650000   20.0270000  
N 18.5680000   15.1060000   20.6080000  
O 20.5480000   12.5180000   18.7450000  
C 20.4060000   13.4770000   19.6270000  
O 21.3580000   14.0550000   20.0770000  
O 14.3110000   16.5910000   22.2110000  
O 13.3150000   14.2500000   21.2700000  
H 17.8750000   12.2200000   19.1580000  
H 19.6720000   12.3390000   18.3330000  
H 19.1530000   15.8720000   20.8130000  
H 13.4090000   16.3200000   22.0850000  
H 13.1630000   13.3340000   21.0000000  
C 17.2280000   17.1280000   22.1650000  
C 18.0940000   17.9590000   21.4630000  
C 18.8260000   18.9330000   22.0820000  
C 18.9160000   19.1250000   23.4680000  
C 17.9890000   18.3320000   24.2400000  
C 17.1040000   17.3770000   23.5830000  
C 18.3920000   18.1070000   20.0550000  
C 19.3560000   19.1450000   19.8900000  
N 19.5090000   19.6800000   21.2130000  
O 19.7190000   18.8110000   17.6140000  
C 20.0440000   19.5490000   18.6790000  
O 20.9460000   20.3600000   18.6030000  
O 17.9230000   18.4980000   25.6000000  
O 16.3670000   16.5040000   24.3770000  
H 17.9850000   17.5180000   19.2990000  
H 19.0810000   18.2000000   18.0370000  
H 20.0340000   20.4690000   21.5420000  
H 18.4230000   19.3060000   25.8150000  
H 15.5860000   16.2320000   23.8020000  
C 19.7720000   20.1550000   24.0720000  
C 19.1840000   21.3800000   24.3520000  
C 19.8340000   22.3380000   25.0960000  
C 21.1810000   22.2520000   25.5560000  
C 21.8270000   21.0480000   25.1560000  
C 21.1470000   19.9820000   24.5320000  
C 17.8120000   21.9410000   24.0780000  
C 17.7980000   23.1540000   24.6840000  
N 19.0030000   23.4440000   25.2790000  
O 15.5390000   23.6110000   24.0220000  
C 16.7160000   24.1380000   24.5120000  
O 16.7240000   25.3180000   24.7880000  
O 23.1690000   20.9250000   25.5160000  
O 21.8010000   18.9070000   24.1700000  
H 17.0500000   21.4050000   23.5510000  
H 15.9340000   22.7920000   23.7710000  
H 19.2010000   24.3050000   25.7640000  
H 23.5030000   20.1830000   24.9230000  
H 21.2540000   18.2740000   23.6590000  
H 21.5980000   23.1070000   26.1080000  
