76
110 
C 20.8200000   13.1360000   27.4620000  
C 21.9940000   12.3920000   26.9440000  
C 22.1310000   12.3960000   25.5480000  
C 21.2920000   12.9870000   24.6120000  
C 20.1270000   13.6720000   25.0720000  
C 19.8840000   13.6440000   26.4320000  
C 23.2840000   12.0030000   24.8180000  
C 23.0980000   12.3750000   23.5030000  
N 21.8260000   12.9940000   23.4150000  
O 25.0940000   11.4750000   22.7580000  
C 23.9300000   12.0280000   22.3810000  
O 23.7340000   12.3730000   21.2190000  
O 18.7940000   14.1710000   27.0320000  
O 20.7400000   13.2480000   28.6610000  
H 22.6470000   11.9380000   27.6680000  
H 24.0830000   11.4500000   25.3260000  
H 24.9620000   11.1570000   23.6420000  
H 18.1810000   14.5580000   26.3630000  
C 19.3340000   14.5520000   24.1780000  
C 18.0080000   14.3280000   23.8420000  
C 17.4820000   15.0830000   22.8340000  
C 18.1570000   15.9800000   22.0220000  
C 19.4550000   16.2710000   22.4620000  
C 20.0120000   15.6530000   23.5920000  
C 16.9900000   13.3690000   24.2600000  
C 15.8580000   13.6660000   23.5060000  
N 16.2110000   14.6490000   22.5470000  
O 14.4550000   12.0880000   24.6400000  
C 14.5640000   12.9500000   23.5340000  
O 13.6000000   13.1540000   22.8280000  
O 20.1240000   17.2980000   21.8540000  
O 21.3430000   15.9570000   23.8990000  
H 17.1090000   12.6440000   25.0970000  
H 15.3240000   11.9630000   24.9430000  
H 15.6540000   15.1650000   21.8300000  
H 21.0590000   17.3020000   22.2390000  
H 21.5890000   15.2290000   24.4550000  
C 17.4310000   16.7490000   20.9740000  
C 16.3080000   17.5590000   21.3060000  
C 15.5330000   18.1320000   20.3370000  
C 15.7660000   18.0140000   18.9730000  
C 16.9820000   17.3430000   18.6250000  
C 17.7260000   16.6140000   19.5780000  
C 15.6860000   18.0090000   22.5360000  
C 14.4990000   18.6890000   22.1960000  
N 14.4310000   18.8200000   20.7640000  
O 13.6990000   18.9360000   24.4560000  
C 13.4740000   19.1730000   23.1450000  
O 12.5710000   19.8620000   22.7450000  
O 17.4210000   17.3980000   17.3220000  
O 18.7510000   15.8390000   19.2080000  
H 15.9120000   17.6200000   23.5500000  
H 14.4190000   18.2990000   24.2530000  
H 13.6660000   19.1800000   20.2520000  
H 18.2070000   16.8880000   17.2790000  
H 18.9750000   15.4670000   20.0360000  
C 14.8210000   18.6380000   17.9750000  
C 14.4580000   20.0180000   18.0770000  
C 13.5170000   20.5760000   17.2070000  
C 12.8990000   19.9320000   16.1250000  
C 13.2390000   18.5520000   16.0180000  
C 14.1850000   17.9430000   16.9030000  
C 14.8000000   21.0770000   19.0460000  
C 13.9310000   22.1090000   18.7920000  
N 13.2870000   21.8900000   17.5300000  
O 14.4710000   23.4370000   20.8060000  
C 13.7960000   23.3500000   19.6240000  
O 13.1470000   24.3200000   19.2670000  
O 12.7410000   17.8780000   14.9660000  
O 14.6550000   16.7020000   16.6640000  
H 15.4110000   21.0160000   19.9290000  
H 14.9490000   22.6200000   20.9510000  
H 12.7400000   22.5660000   17.0710000  
H 12.8320000   16.9290000   15.2810000  
H 15.5250000   16.6940000   17.0350000  
H 12.1200000   20.3440000   15.5070000  
