76
110 
C 18.4510000   16.7470000   29.0660000  
C 17.2390000   16.3050000   29.7500000  
C 16.2400000   15.7470000   28.9810000  
C 16.3570000   15.5600000   27.5700000  
C 17.5180000   16.0000000   26.8220000  
C 18.4770000   16.6520000   27.5750000  
C 15.0130000   15.2150000   29.3650000  
C 14.4870000   14.7720000   28.1720000  
N 15.3300000   14.9180000   27.0450000  
O 12.4040000   14.0070000   29.0780000  
C 13.1850000   13.9820000   27.9630000  
O 12.8270000   13.4410000   26.9230000  
O 19.5910000   17.1310000   26.9860000  
O 19.3090000   17.2850000   29.7380000  
H 17.0640000   16.4030000   30.8510000  
H 14.5920000   15.1930000   30.3490000  
H 12.6730000   14.6980000   29.7340000  
H 19.4210000   17.0660000   26.0540000  
C 17.4970000   15.9490000   25.3590000  
C 17.1270000   17.1530000   24.7450000  
C 17.1210000   17.3110000   23.4040000  
C 17.2800000   16.2400000   22.5140000  
C 17.5320000   14.9330000   23.1090000  
C 17.7640000   14.8060000   24.5380000  
C 17.1330000   18.4890000   25.3070000  
C 17.0940000   19.3970000   24.1980000  
N 17.0130000   18.6480000   23.0210000  
O 17.2680000   21.4870000   25.4650000  
C 17.2860000   20.8900000   24.2210000  
O 17.4870000   21.5980000   23.1990000  
O 17.7590000   13.8360000   22.3320000  
O 18.0120000   13.5800000   25.1100000  
H 17.2010000   18.6800000   26.4040000  
H 16.9080000   20.7930000   26.0180000  
H 16.8450000   19.0860000   22.1070000  
H 18.0380000   13.0950000   22.9290000  
H 17.9700000   13.8200000   26.0940000  
C 17.1910000   16.5150000   21.0330000  
C 18.2410000   17.1240000   20.3430000  
C 18.3060000   17.1920000   18.9970000  
C 17.3030000   16.8160000   18.1110000  
C 16.1330000   16.2820000   18.8010000  
C 16.1360000   16.0300000   20.1860000  
C 19.5620000   17.6070000   20.7590000  
C 20.2980000   18.0060000   19.6290000  
N 19.5100000   17.6680000   18.5290000  
O 22.1580000   18.8890000   20.6740000  
C 21.6200000   18.6990000   19.4780000  
O 22.1920000   18.9120000   18.4670000  
O 15.0430000   15.9870000   18.0100000  
O 15.2160000   15.2200000   20.8250000  
H 20.0270000   17.6890000   21.7940000  
H 21.5410000   18.4160000   21.2490000  
H 19.7560000   17.8110000   17.5630000  
H 15.2280000   16.2370000   17.1170000  
H 15.7930000   14.4680000   21.1230000  
C 17.3430000   16.9000000   16.6590000  
C 17.1830000   15.7180000   15.8770000  
C 17.1680000   15.8750000   14.5260000  
C 17.1900000   17.0470000   13.7950000  
C 17.3390000   18.2160000   14.6210000  
C 17.4630000   18.1320000   16.0230000  
C 16.9080000   14.3600000   16.2330000  
C 16.6910000   13.6780000   15.0300000  
N 16.8030000   14.6210000   14.0050000  
O 15.9780000   11.7120000   15.9760000  
C 16.2520000   12.3040000   14.8360000  
O 16.0660000   11.7260000   13.8230000  
O 17.2910000   19.3970000   14.0790000  
O 17.5060000   19.2560000   16.7970000  
H 16.9160000   13.8610000   17.2070000  
H 16.1340000   12.4130000   16.6860000  
H 16.6560000   14.4080000   13.0520000  
H 17.2170000   20.1660000   14.7090000  
H 17.4870000   18.9930000   17.7260000  
H 17.1270000   17.1840000   12.7030000  
