76
110 
C 11.5080000   15.0820000   26.6720000  
C 10.6730000   16.1320000   26.1420000  
C 10.9010000   16.8350000   24.9950000  
C 12.0450000   16.6760000   24.3120000  
C 13.0120000   15.6970000   24.7200000  
C 12.7010000   14.8480000   25.8260000  
C 10.1040000   17.8190000   24.4130000  
C 10.8980000   18.1430000   23.2770000  
N 12.1450000   17.5060000   23.2590000  
O  9.2080000   19.6380000   22.2630000  
C 10.4660000   19.1890000   22.2950000  
O 11.1890000   19.4620000   21.3540000  
O 13.4820000   13.7930000   26.1250000  
O 11.1990000   14.4430000   27.6820000  
H  9.8560000   16.2630000   26.7950000  
H  9.1690000   18.1960000   24.7710000  
H  8.7180000   19.1300000   22.9590000  
H 14.0870000   13.7750000   25.4280000  
C 14.2750000   15.6260000   23.9290000  
C 15.4210000   16.0320000   24.5540000  
C 16.4420000   16.3460000   23.7460000  
C 16.5190000   16.1590000   22.3250000  
C 15.4320000   15.5270000   21.7480000  
C 14.2710000   15.3390000   22.5480000  
C 15.7260000   16.4790000   25.8620000  
C 16.9280000   17.1340000   25.7790000  
N 17.4200000   16.9660000   24.4360000  
O 17.0870000   17.8770000   28.0560000  
C 17.7200000   17.7630000   26.8960000  
O 18.8530000   18.0620000   26.7500000  
O 15.3620000   15.3450000   20.4420000  
O 13.1370000   14.8340000   21.9740000  
H 15.0230000   16.4890000   26.7140000  
H 16.1630000   17.6790000   27.8190000  
H 18.3020000   17.2090000   23.9950000  
H 14.4110000   15.0240000   20.3820000  
H 12.4870000   14.8380000   22.7510000  
C 17.6510000   16.5900000   21.4800000  
C 18.7840000   15.7180000   21.3880000  
C 19.7900000   15.9350000   20.5040000  
C 19.8530000   17.0770000   19.6560000  
C 18.7210000   17.8930000   19.6660000  
C 17.6550000   17.6900000   20.5560000  
C 19.1610000   14.4640000   22.0200000  
C 20.3420000   13.9950000   21.5380000  
N 20.8160000   15.0110000   20.6960000  
O 20.5550000   11.9750000   22.9100000  
C 21.0990000   12.7530000   21.8990000  
O 22.1400000   12.3740000   21.3910000  
O 18.7240000   19.0420000   18.9500000  
O 16.6540000   18.6140000   20.7310000  
H 18.4100000   13.9810000   22.5740000  
H 19.7350000   12.3830000   23.1330000  
H 21.6400000   14.9380000   20.1080000  
H 17.8100000   19.3410000   18.7720000  
H 15.9710000   18.3400000   21.3680000  
C 21.1530000   17.4640000   18.9590000  
C 21.6690000   16.7660000   17.8540000  
C 22.7830000   17.2360000   17.1160000  
C 23.4300000   18.4720000   17.4710000  
C 22.9190000   19.1450000   18.6000000  
C 21.8640000   18.6010000   19.4210000  
C 21.2450000   15.6390000   17.1870000  
C 22.0430000   15.4530000   16.0680000  
N 23.0580000   16.3920000   16.0420000  
O 20.6490000   13.8240000   15.0760000  
C 21.6980000   14.5970000   14.9110000  
O 22.3090000   14.4790000   13.8480000  
O 23.2870000   20.4520000   18.7440000  
O 21.3290000   19.3850000   20.4490000  
H 20.2910000   15.1400000   17.3150000  
H 20.5170000   13.9430000   16.0220000  
H 23.7880000   16.5000000   15.3710000  
H 22.4550000   20.8830000   19.0010000  
H 20.4110000   19.0940000   20.5720000  
H 24.1930000   18.8990000   16.8740000  
