76
110 
C 19.1310000   11.5490000   27.0520000  
C 20.1270000   12.2530000   27.9150000  
C 20.4420000   13.5530000   27.6960000  
C 19.9910000   14.3540000   26.6040000  
C 19.0720000   13.7030000   25.6880000  
C 18.6250000   12.4000000   25.9530000  
C 21.2750000   14.4370000   28.4210000  
C 21.2550000   15.6610000   27.7830000  
N 20.4720000   15.5540000   26.6630000  
O 22.5430000   16.8640000   29.3700000  
C 21.8610000   16.9540000   28.2470000  
O 21.7550000   18.0640000   27.6950000  
O 17.6520000   11.8700000   25.1510000  
O 18.7510000   10.4270000   27.3310000  
H 20.4980000   11.6940000   28.6850000  
H 21.8260000   14.2090000   29.3350000  
H 22.4940000   15.9320000   29.6330000  
H 17.3370000   12.5110000   24.4940000  
C 18.5100000   14.5360000   24.5680000  
C 18.6380000   14.1870000   23.2270000  
C 18.2390000   14.9760000   22.2180000  
C 17.7570000   16.2830000   22.3330000  
C 17.4540000   16.6100000   23.7140000  
C 17.8300000   15.7730000   24.7830000  
C 19.2760000   13.0550000   22.6030000  
C 19.3540000   13.3780000   21.2320000  
N 18.6380000   14.5170000   20.9820000  
O 20.3640000   11.3500000   20.7150000  
C 20.0550000   12.5250000   20.2510000  
O 20.2900000   12.7410000   19.0570000  
O 16.7460000   17.7120000   24.1090000  
O 17.6220000   16.2890000   26.0790000  
H 19.7820000   12.2490000   23.0730000  
H 20.0540000   11.2370000   21.5920000  
H 18.5710000   15.0360000   20.1410000  
H 16.8570000   17.6850000   25.0950000  
H 18.4780000   16.0500000   26.6070000  
C 17.3570000   17.0960000   21.1480000  
C 16.2650000   16.7630000   20.3700000  
C 15.8860000   17.5060000   19.2720000  
C 16.5360000   18.6970000   18.9130000  
C 17.6450000   19.1300000   19.7100000  
C 18.1410000   18.3000000   20.7330000  
C 15.3390000   15.6700000   20.3770000  
C 14.5930000   15.6890000   19.2030000  
N 14.8720000   16.9070000   18.5410000  
O 13.5830000   13.6090000   19.6490000  
C 13.6680000   14.6010000   18.7880000  
O 13.0770000   14.6700000   17.7050000  
O 18.3910000   20.1990000   19.3900000  
O 19.2840000   18.7070000   21.4230000  
H 15.2880000   14.8360000   21.1050000  
H 14.0990000   13.8470000   20.4160000  
H 14.2920000   17.2240000   17.6930000  
H 17.9810000   20.5780000   18.5770000  
H 19.6680000   17.9960000   21.9190000  
C 15.9790000   19.4830000   17.7770000  
C 14.5770000   19.8520000   17.9350000  
C 13.9240000   20.2850000   16.7720000  
C 14.5700000   20.5280000   15.6170000  
C 15.9210000   20.1840000   15.4700000  
C 16.6270000   19.6680000   16.5490000  
C 13.7160000   19.8560000   19.0810000  
C 12.4740000   20.3390000   18.5360000  
N 12.6600000   20.5680000   17.1620000  
O 11.3480000   20.2240000   20.6830000  
C 11.2730000   20.6040000   19.3800000  
O 10.2710000   21.0060000   18.9170000  
O 16.5000000   20.3960000   14.3300000  
O 17.9820000   19.4580000   16.4360000  
H 13.9550000   19.6420000   20.1150000  
H 12.2400000   19.7430000   20.8640000  
H 11.8910000   20.7330000   16.5420000  
H 17.3340000   19.9290000   14.2150000  
H 18.3100000   19.2550000   17.2860000  
H 13.9520000   20.9710000   14.7920000  
