76
111 
C 11.9100000   18.0220000   27.2230000  
C 12.8020000   18.4840000   28.2700000  
C 14.0780000   18.7970000   28.1420000  
C 14.7500000   18.5150000   26.9390000  
C 13.9430000   18.1850000   25.7590000  
C 12.6070000   17.9130000   25.8940000  
C 15.1250000   19.2520000   29.0230000  
C 16.2220000   19.3910000   28.2330000  
N 16.0070000   18.8550000   26.9220000  
O 17.5480000   19.8070000   30.1370000  
C 17.5510000   19.7570000   28.7980000  
O 18.4350000   20.0380000   28.1220000  
O 11.8680000   17.5670000   24.8430000  
O 10.7600000   17.6610000   27.4110000  
H 12.3060000   18.6450000   29.2340000  
H 15.0990000   19.5190000   30.0890000  
H 16.6530000   19.7230000   30.5020000  
H 12.5930000   17.4390000   24.1340000  
C 14.6250000   18.1140000   24.4630000  
C 14.7360000   16.8640000   23.8740000  
C 15.5070000   16.6890000   22.7580000  
C 16.2570000   17.7460000   22.1950000  
C 16.0180000   19.0580000   22.6950000  
C 15.2160000   19.2600000   23.8130000  
C 14.4700000   15.5190000   24.3910000  
C 15.0440000   14.6290000   23.4890000  
N 15.6420000   15.3260000   22.4530000  
O 14.2330000   12.6220000   24.5230000  
C 14.9500000   13.2040000   23.4770000  
O 15.3910000   12.5890000   22.5480000  
O 16.6840000   20.1230000   22.2100000  
O 15.0570000   20.4090000   24.4700000  
H 13.9520000   15.1890000   25.2850000  
H 13.9970000   13.4250000   25.0260000  
H 15.9820000   15.0310000   21.5430000  
H 16.9900000   19.7590000   21.3880000  
H 15.5530000   21.0060000   23.9330000  
C 17.2430000   17.4130000   21.0980000  
C 16.8660000   16.6040000   19.9850000  
C 17.7560000   15.9900000   19.1490000  
C 19.1450000   16.1480000   19.3490000  
C 19.5490000   16.9120000   20.4670000  
C 18.6300000   17.6370000   21.3420000  
C 15.5950000   16.2210000   19.4300000  
C 15.8150000   15.3680000   18.3270000  
N 17.2070000   15.2670000   18.1220000  
O 13.5430000   14.8930000   17.7960000  
C 14.8380000   14.6990000   17.4720000  
O 15.0760000   13.9470000   16.5470000  
O 20.8760000   17.0610000   20.7030000  
O 19.0900000   18.2510000   22.4330000  
H 14.5930000   16.4520000   19.8790000  
H 13.5480000   15.5160000   18.4980000  
H 17.7380000   14.7100000   17.4060000  
H 21.4360000   16.6190000   20.0280000  
H 20.0340000   17.9270000   22.5210000  
C 20.1200000   15.3910000   18.4920000  
C 20.2850000   15.7830000   17.1470000  
C 21.1780000   15.0680000   16.3650000  
C 21.9680000   14.0370000   16.8900000  
C 21.9040000   13.7890000   18.2410000  
C 21.0190000   14.4640000   19.0670000  
C 19.5250000   16.7370000   16.3200000  
C 19.9410000   16.4550000   15.0330000  
N 21.0780000   15.5480000   15.1080000  
O 18.3370000   17.9200000   14.1030000  
C 19.2780000   17.0400000   13.7750000  
O 19.5420000   16.7470000   12.6150000  
O 22.7050000   12.8580000   18.8500000  
O 20.9810000   14.0130000   20.3530000  
H 18.6160000   17.2670000   16.5440000  
H 18.3000000   17.9350000   15.1230000  
H 21.5340000   15.1610000   14.3170000  
H 22.5000000   13.0620000   19.8480000  
H 20.0550000   14.2200000   20.5950000  
H 22.6860000   13.5740000   16.2350000  
