76
111 
C 12.7980000   16.1370000   28.1350000  
C 13.7690000   16.6120000   29.1690000  
C 14.9630000   17.1190000   28.7660000  
C 15.2580000   17.3340000   27.3880000  
C 14.3720000   16.9280000   26.3290000  
C 13.1540000   16.3260000   26.7090000  
C 16.0490000   17.7490000   29.4030000  
C 16.9100000   18.1100000   28.4220000  
N 16.4110000   17.9140000   27.1460000  
O 18.4350000   18.9470000   30.1110000  
C 18.1650000   18.8220000   28.7540000  
O 18.8920000   19.4550000   28.0150000  
O 12.2320000   16.0380000   25.7980000  
O 11.6700000   15.7060000   28.4470000  
H 13.3660000   16.5440000   30.1720000  
H 16.2610000   17.7450000   30.4720000  
H 17.9730000   18.2070000   30.4840000  
H 12.6460000   16.3600000   25.0230000  
C 14.8830000   17.0430000   24.9850000  
C 15.7980000   15.9980000   24.5700000  
C 16.4150000   16.0720000   23.3530000  
C 16.1150000   17.0670000   22.3810000  
C 15.1490000   18.0230000   22.6870000  
C 14.6120000   18.0120000   24.0080000  
C 16.4280000   14.8970000   25.2750000  
C 17.4730000   14.4530000   24.4850000  
N 17.3990000   15.0750000   23.2070000  
O 18.3920000   12.9880000   26.1550000  
C 18.5170000   13.4610000   24.8770000  
O 19.2980000   13.0160000   24.0200000  
O 14.8550000   18.9850000   21.8060000  
O 13.8340000   19.0720000   24.2890000  
H 16.4190000   14.7530000   26.3250000  
H 17.5060000   13.2400000   26.4120000  
H 18.0980000   14.9770000   22.4930000  
H 15.5270000   18.8700000   21.0990000  
H 14.1610000   19.7230000   23.6410000  
C 16.8640000   17.1520000   21.0850000  
C 16.7580000   16.1210000   20.1600000  
C 17.4840000   16.0470000   19.0260000  
C 18.4650000   16.9480000   18.6960000  
C 18.5900000   18.0750000   19.5810000  
C 17.8330000   18.1150000   20.7780000  
C 15.8320000   14.9970000   20.0900000  
C 16.0410000   14.3370000   18.8760000  
N 17.1250000   14.9780000   18.1910000  
O 14.3770000   12.8350000   19.2850000  
C 15.2640000   13.2130000   18.4100000  
O 15.3700000   12.7250000   17.3510000  
O 19.4250000   19.1050000   19.2580000  
O 18.0060000   19.2380000   21.5630000  
H 15.0460000   14.9100000   20.7680000  
H 14.2940000   13.6450000   19.7870000  
H 17.4050000   14.9710000   17.1970000  
H 19.5620000   19.0680000   18.3100000  
H 18.8690000   19.6860000   21.2970000  
C 19.1990000   16.8560000   17.4150000  
C 18.8500000   17.4570000   16.2140000  
C 19.5580000   17.2660000   15.0420000  
C 20.7920000   16.6870000   14.9520000  
C 21.1180000   15.9280000   16.1340000  
C 20.2760000   15.8890000   17.2940000  
C 17.6810000   18.2440000   15.8800000  
C 17.7870000   18.5580000   14.5610000  
N 18.9780000   17.9860000   14.0630000  
O 15.8140000   19.8070000   14.4540000  
C 16.8810000   19.4680000   13.7980000  
O 17.0190000   19.8450000   12.6440000  
O 22.2840000   15.2450000   16.1080000  
O 20.5910000   15.1750000   18.3610000  
H 16.9510000   18.6650000   16.5680000  
H 15.7570000   19.1910000   15.2140000  
H 19.2120000   18.0390000   13.0640000  
H 22.6180000   15.1630000   17.0080000  
H 19.9390000   15.2500000   19.1040000  
H 21.3520000   16.6100000   14.0340000  
