76
111 
C 19.2700000   13.8870000   28.3170000  
C 20.4040000   12.9840000   28.0650000  
C 20.8240000   12.8310000   26.7940000  
C 20.2340000   13.5250000   25.6410000  
C 19.2260000   14.4890000   25.9220000  
C 18.7010000   14.6270000   27.2020000  
C 21.8240000   12.0360000   26.2630000  
C 21.7700000   12.2560000   24.8460000  
N 20.7620000   13.2270000   24.5390000  
O 23.4380000   10.5380000   24.3640000  
C 22.5940000   11.5400000   23.9240000  
O 22.6000000   11.6940000   22.7110000  
O 17.8320000   15.6240000   27.5520000  
O 18.9220000   14.0410000   29.4560000  
H 20.8370000   12.4890000   28.9550000  
H 22.3710000   11.4020000   26.8200000  
H 23.0930000   10.4400000   25.2530000  
H 17.8120000   16.2390000   26.8080000  
C 18.7120000   15.3030000   24.8120000  
C 17.4300000   15.1470000   24.3520000  
C 16.9460000   15.8960000   23.3400000  
C 17.6960000   16.7570000   22.5400000  
C 19.0570000   16.9430000   22.9090000  
C 19.5080000   16.2490000   24.0980000  
C 16.3690000   14.1430000   24.6800000  
C 15.2760000   14.5330000   23.9290000  
N 15.6390000   15.5140000   22.9720000  
O 13.7550000   13.2620000   25.1120000  
C 13.9010000   13.9650000   23.9550000  
O 13.0060000   14.2370000   23.1750000  
O 19.8190000   17.9200000   22.3360000  
O 20.7870000   16.4530000   24.5240000  
H 16.4680000   13.3200000   25.3530000  
H 14.6200000   13.2950000   25.5270000  
H 15.1600000   16.0430000   22.2940000  
H 19.4590000   18.1410000   21.4560000  
H 21.1740000   17.0960000   23.9240000  
C 17.1050000   17.2600000   21.2190000  
C 15.9260000   18.0540000   21.1690000  
C 15.3540000   18.2970000   19.9620000  
C 15.8360000   18.0100000   18.7200000  
C 17.0550000   17.2210000   18.7830000  
C 17.6530000   16.8110000   19.9840000  
C 15.1840000   18.7330000   22.1990000  
C 14.2080000   19.4520000   21.4870000  
N 14.2820000   19.1610000   20.1000000  
O 13.4050000   20.4510000   23.5340000  
C 13.1710000   20.2960000   22.1790000  
O 12.1920000   20.8160000   21.6800000  
O 17.7830000   16.9470000   17.6600000  
O 18.7990000   16.0920000   19.9170000  
H 15.3270000   18.7220000   23.2630000  
H 14.1750000   19.8560000   23.7270000  
H 13.5040000   19.3170000   19.4790000  
H 17.3670000   17.3890000   16.8790000  
H 18.7900000   15.6900000   19.0730000  
C 15.0620000   18.2670000   17.5390000  
C 14.8770000   19.5510000   17.0720000  
C 14.1500000   19.7620000   15.9300000  
C 13.6260000   18.6720000   15.1040000  
C 13.9400000   17.4290000   15.5420000  
C 14.6400000   17.2180000   16.7630000  
C 15.2890000   20.8510000   17.5920000  
C 14.6920000   21.7940000   16.7690000  
N 14.0910000   21.1280000   15.7080000  
O 15.3960000   23.7260000   18.0940000  
C 14.7760000   23.2470000   16.9360000  
O 14.4480000   24.0160000   16.0510000  
O 13.5680000   16.3420000   14.7620000  
O 14.9160000   15.9600000   17.0060000  
H 16.0400000   21.0280000   18.3650000  
H 15.6610000   22.9390000   18.6140000  
H 13.6800000   21.6260000   14.9140000  
H 13.9540000   15.5770000   15.2080000  
H 15.3430000   15.8940000   17.8800000  
H 13.0670000   18.8780000   14.2120000  
