76
111 
C 14.3390000   17.8440000   14.7650000  
C 12.8970000   18.0930000   14.8850000  
C 12.2420000   17.8020000   16.0440000  
C 12.9000000   17.4380000   17.2220000  
C 14.3200000   17.2960000   17.2700000  
C 15.0140000   17.5220000   16.0640000  
C 10.8540000   18.0140000   16.3350000  
C 10.8480000   17.7840000   17.7470000  
N 12.1190000   17.4840000   18.2780000  
O  8.5150000   18.0960000   18.0750000  
C  9.6750000   17.8710000   18.6840000  
O  9.7400000   17.6940000   19.9130000  
O 16.3470000   17.4160000   16.0610000  
O 14.9280000   18.0740000   13.6760000  
H 12.3490000   18.3830000   13.9600000  
H 10.0950000   18.3900000   15.6720000  
H  8.7900000   18.2540000   17.1630000  
H 16.5130000   17.2850000   16.9970000  
C 14.9960000   17.2220000   18.5860000  
C 15.5390000   15.9970000   18.9690000  
C 16.1990000   15.8170000   20.1370000  
C 16.5150000   16.8300000   21.0320000  
C 15.9060000   18.0760000   20.7370000  
C 15.0720000   18.2050000   19.5440000  
C 15.5470000   14.7510000   18.2880000  
C 16.2050000   13.8900000   19.1660000  
N 16.6970000   14.5520000   20.2920000  
O 16.1040000   11.9110000   17.9180000  
C 16.6090000   12.4300000   18.9740000  
O 17.4240000   11.8550000   19.6530000  
O 16.0870000   19.1210000   21.5770000  
O 14.5610000   19.4510000   19.3390000  
H 15.0460000   14.4680000   17.4110000  
H 15.3990000   12.5480000   17.6350000  
H 17.2190000   14.1590000   21.0750000  
H 16.3830000   18.8560000   22.4600000  
H 13.9310000   19.3950000   18.6620000  
C 17.2270000   16.6300000   22.3320000  
C 18.6400000   16.7010000   22.2780000  
C 19.2910000   16.3830000   23.4370000  
C 18.6810000   16.0500000   24.7040000  
C 17.2500000   15.9470000   24.7480000  
C 16.5640000   16.1980000   23.5100000  
C 19.5700000   17.1120000   21.2850000  
C 20.8020000   16.9440000   21.9570000  
N 20.6970000   16.5370000   23.2750000  
O 22.1270000   17.2780000   19.9970000  
C 22.1160000   17.0590000   21.3440000  
O 23.1000000   16.8920000   22.0360000  
O 16.5550000   15.6910000   25.8140000  
O 15.2110000   16.1340000   23.4750000  
H 19.3250000   17.3610000   20.2070000  
H 21.2080000   17.2440000   19.6570000  
H 21.4050000   16.3680000   23.9600000  
H 17.0990000   15.2070000   26.4380000  
H 14.9060000   15.6220000   24.2690000  
C 19.4000000   15.8050000   25.9810000  
C 19.8480000   16.8630000   26.8670000  
C 20.4660000   16.5630000   28.0150000  
C 21.0220000   15.2700000   28.2680000  
C 20.8070000   14.2700000   27.3590000  
C 19.8990000   14.4770000   26.2780000  
C 19.4790000   18.3070000   26.8790000  
C 19.9160000   18.7610000   28.0900000  
N 20.6410000   17.7210000   28.6950000  
O 18.8230000   20.8550000   27.9870000  
C 19.6240000   20.0880000   28.7060000  
O 19.9290000   20.4970000   29.8320000  
O 21.2530000   13.0620000   27.7250000  
O 19.6310000   13.5040000   25.3560000  
H 18.9590000   18.8550000   26.1720000  
H 18.7330000   20.3360000   27.1810000  
H 21.1200000   17.8400000   29.5360000  
H 21.0710000   12.4110000   27.0010000  
H 18.9310000   13.8270000   24.7630000  
H 21.4960000   14.9740000   29.2340000  
