76
111 
C 13.2710000   18.5620000   27.5210000  
C 13.9820000   18.4940000   28.8260000  
C 15.2720000   18.0430000   28.8600000  
C 15.9460000   17.6520000   27.7390000  
C 15.2780000   17.6580000   26.4620000  
C 14.0350000   18.1470000   26.3430000  
C 16.2230000   17.9300000   29.8680000  
C 17.3950000   17.4380000   29.2670000  
N 17.1600000   17.3100000   27.9260000  
O 18.6250000   17.6370000   31.2030000  
C 18.6930000   17.2500000   29.9120000  
O 19.7540000   16.7900000   29.4550000  
O 13.5150000   18.2810000   25.1400000  
O 12.0680000   18.8020000   27.4310000  
H 13.4200000   18.7620000   29.6580000  
H 16.0160000   18.0860000   30.8840000  
H 17.7920000   18.1730000   31.1250000  
H 14.0370000   17.8340000   24.5100000  
C 16.0900000   17.3030000   25.3060000  
C 15.9760000   16.0950000   24.7080000  
C 16.4120000   15.9250000   23.4300000  
C 17.1290000   16.8220000   22.6550000  
C 17.4170000   18.0260000   23.3500000  
C 16.7890000   18.3160000   24.6370000  
C 15.2480000   14.8970000   25.1060000  
C 15.3930000   14.0340000   24.0190000  
N 16.1370000   14.6420000   23.0210000  
O 13.8490000   12.3920000   24.7350000  
C 14.8530000   12.6920000   23.8410000  
O 15.0840000   11.9070000   22.9870000  
O 18.1970000   19.0480000   22.7360000  
O 16.8170000   19.6320000   25.0760000  
H 14.8010000   14.6410000   26.1110000  
H 13.7550000   13.0790000   25.3970000  
H 16.4010000   14.2380000   22.1350000  
H 18.3790000   18.8280000   21.7860000  
H 17.6070000   20.0140000   24.6720000  
C 17.7130000   16.6530000   21.2980000  
C 16.8080000   16.6190000   20.1840000  
C 17.2020000   16.2910000   18.9150000  
C 18.5640000   16.2420000   18.5460000  
C 19.5470000   16.3120000   19.6440000  
C 19.0760000   16.3980000   20.9910000  
C 15.3390000   16.6200000   20.0670000  
C 15.0320000   16.4550000   18.7360000  
N 16.1820000   16.2950000   17.9980000  
O 12.7710000   16.7570000   18.9700000  
C 13.7600000   16.5670000   18.1690000  
O 13.6430000   16.4340000   16.9420000  
O 20.8690000   16.0870000   19.4090000  
O 19.9930000   16.4210000   22.0000000  
H 14.7180000   16.6970000   20.9570000  
H 13.0350000   16.4790000   19.8800000  
H 16.3180000   16.1450000   16.9990000  
H 21.0400000   16.1190000   18.4280000  
H 20.9130000   16.4350000   21.5800000  
C 19.0310000   15.8900000   17.1280000  
C 18.7580000   16.7740000   16.0810000  
C 19.2040000   16.5290000   14.8080000  
C 19.9210000   15.3740000   14.4510000  
C 20.1720000   14.4110000   15.4550000  
C 19.7050000   14.6740000   16.8100000  
C 18.1060000   18.0380000   16.0910000  
C 18.0090000   18.3920000   14.7510000  
N 18.7780000   17.5260000   13.9650000  
O 16.4890000   20.2130000   15.0060000  
C 17.3140000   19.4880000   14.1800000  
O 17.5590000   19.8520000   13.0510000  
O 20.9710000   13.3490000   15.1750000  
O 19.9080000   13.7750000   17.7860000  
H 17.4510000   18.4520000   16.7880000  
H 16.3020000   19.7740000   15.8300000  
H 18.7130000   17.4760000   13.0040000  
H 21.2060000   12.8890000   15.9570000  
H 19.1950000   13.8880000   18.3970000  
H 20.3970000   15.1430000   13.5050000  
