76
111 
C 12.9630000   16.6440000   28.0560000  
C 13.9880000   16.8150000   29.1450000  
C 15.3330000   16.9490000   28.9140000  
C 15.7950000   17.0530000   27.6030000  
C 14.9140000   17.0160000   26.4820000  
C 13.5800000   16.7120000   26.6820000  
C 16.4780000   16.8970000   29.7190000  
C 17.5560000   17.0720000   28.8700000  
N 17.1120000   17.1230000   27.5720000  
O 19.1940000   17.1620000   30.6110000  
C 18.9640000   17.0020000   29.2330000  
O 19.9080000   17.0670000   28.4330000  
O 12.6960000   16.5290000   25.6660000  
O 11.8070000   16.5250000   28.4110000  
H 13.5310000   16.7470000   30.1120000  
H 16.4640000   16.7400000   30.8290000  
H 18.3960000   16.8840000   31.0370000  
H 13.0740000   16.9390000   24.9160000  
C 15.4220000   17.1770000   25.0850000  
C 16.2460000   16.1630000   24.6030000  
C 16.7660000   16.2050000   23.3920000  
C 16.6000000   17.2730000   22.4890000  
C 15.7200000   18.3100000   22.9090000  
C 15.1330000   18.2730000   24.2220000  
C 16.7130000   14.9450000   25.1970000  
C 17.5400000   14.3250000   24.2570000  
N 17.4630000   15.0730000   23.1090000  
O 18.4350000   12.6560000   25.7210000  
C 18.4130000   13.2000000   24.4820000  
O 18.9640000   12.5760000   23.5510000  
O 15.3990000   19.3880000   22.1070000  
O 14.3380000   19.2920000   24.6400000  
H 16.4340000   14.6950000   26.1890000  
H 17.7230000   13.2290000   26.0620000  
H 18.1710000   14.9890000   22.3740000  
H 15.5190000   19.1840000   21.1790000  
H 14.9400000   19.8370000   25.2340000  
C 17.1510000   17.1700000   21.1080000  
C 16.8780000   16.0700000   20.2720000  
C 17.4050000   16.0490000   18.9820000  
C 18.2130000   17.0420000   18.3630000  
C 18.4420000   18.1280000   19.2100000  
C 18.0070000   18.2080000   20.5380000  
C 16.0160000   14.9000000   20.3790000  
C 16.2120000   14.2240000   19.1380000  
N 17.0630000   14.9230000   18.3310000  
O 14.7530000   12.4400000   19.5770000  
C 15.6400000   12.9560000   18.7060000  
O 15.9730000   12.3700000   17.6920000  
O 19.1590000   19.1680000   18.7060000  
O 18.3340000   19.3620000   21.2850000  
H 15.3780000   14.6540000   21.1480000  
H 14.7540000   12.9450000   20.4100000  
H 17.3440000   14.6010000   17.3930000  
H 19.4110000   19.0500000   17.8380000  
H 18.8820000   20.0040000   20.7970000  
C 18.6270000   16.9890000   16.9420000  
C 18.1570000   17.8860000   15.9750000  
C 18.4590000   17.8540000   14.6540000  
C 19.3640000   16.8880000   14.2240000  
C 19.7270000   15.8370000   15.1120000  
C 19.4860000   15.9390000   16.4600000  
C 17.3610000   19.0420000   16.1560000  
C 17.1130000   19.5730000   14.8600000  
N 17.8660000   18.8420000   13.9550000  
O 15.4890000   21.1950000   15.8000000  
C 16.1470000   20.6560000   14.6540000  
O 15.7300000   21.1400000   13.5860000  
O 20.3530000   14.7210000   14.6390000  
O 20.1410000   15.1120000   17.3570000  
H 16.9120000   19.4030000   17.0830000  
H 16.0020000   20.8070000   16.5120000  
H 17.7750000   18.9610000   12.9760000  
H 20.4900000   14.1040000   15.4120000  
H 19.9600000   15.5290000   18.2120000  
H 19.5520000   16.8740000   13.2390000  
