76
111 
C 17.1690000   18.0970000   29.0640000  
C 16.1770000   17.1600000   29.6530000  
C 15.4440000   16.3650000   28.7730000  
C 15.7160000   16.1390000   27.4400000  
C 16.8360000   16.8300000   26.8980000  
C 17.5380000   17.7390000   27.6530000  
C 14.2210000   15.5840000   28.9930000  
C 13.9370000   14.9540000   27.7700000  
N 14.9880000   15.2140000   26.8520000  
O 11.9260000   13.9460000   28.6310000  
C 12.7780000   14.0290000   27.6280000  
O 12.6640000   13.3590000   26.6270000  
O 18.5400000   18.4520000   27.0490000  
O 17.7240000   18.9170000   29.7960000  
H 16.0050000   17.2790000   30.7190000  
H 13.7640000   15.4210000   30.0240000  
H 12.0630000   14.6660000   29.2170000  
H 18.3910000   18.3890000   26.1180000  
C 16.9900000   16.7440000   25.4070000  
C 16.4870000   17.7400000   24.6100000  
C 16.5930000   17.6530000   23.2710000  
C 17.1030000   16.5850000   22.5410000  
C 17.6740000   15.5890000   23.3480000  
C 17.5690000   15.5800000   24.7660000  
C 15.8540000   18.9520000   24.9660000  
C 15.4810000   19.5880000   23.7340000  
N 15.9130000   18.7700000   22.6940000  
O 14.2930000   21.4660000   24.7450000  
C 14.7190000   20.8750000   23.5820000  
O 14.4930000   21.3690000   22.5070000  
O 18.3110000   14.5150000   22.8470000  
O 18.0180000   14.4480000   25.4570000  
H 15.6370000   19.2840000   25.9420000  
H 14.3380000   20.7950000   25.3870000  
H 15.7740000   18.8830000   21.6980000  
H 18.2390000   14.5990000   21.8850000  
H 17.7410000   14.4560000   26.4270000  
C 17.2440000   16.6050000   21.0560000  
C 18.4170000   17.0660000   20.4530000  
C 18.4200000   17.1820000   19.0850000  
C 17.3350000   16.8830000   18.2610000  
C 16.1940000   16.3880000   18.8280000  
C 16.1700000   16.2040000   20.2310000  
C 19.7520000   17.4530000   20.9400000  
C 20.4350000   17.8390000   19.8000000  
N 19.7100000   17.5250000   18.6680000  
O 22.3900000   18.5130000   21.0530000  
C 21.7870000   18.4360000   19.8280000  
O 22.3740000   18.7270000   18.8120000  
O 14.9400000   16.2620000   18.1810000  
O 15.0440000   15.6420000   20.7600000  
H 20.0570000   17.5720000   21.8980000  
H 21.7310000   18.2070000   21.6850000  
H 20.0100000   17.4080000   17.7380000  
H 15.0340000   15.8970000   17.2900000  
H 14.2930000   15.6520000   20.0440000  
C 17.3810000   16.9540000   16.8170000  
C 17.1330000   15.7790000   16.1080000  
C 17.2810000   15.8010000   14.7270000  
C 17.3130000   16.9950000   13.9590000  
C 17.3780000   18.2370000   14.7180000  
C 17.4080000   18.2070000   16.0930000  
C 17.2250000   14.4110000   16.4760000  
C 17.1240000   13.6380000   15.3360000  
N 17.1920000   14.5250000   14.2200000  
O 17.4170000   11.4090000   16.2090000  
C 17.1890000   12.1870000   15.1600000  
O 17.1320000   11.6060000   14.0520000  
O 17.4810000   19.4130000   14.0170000  
O 17.3960000   19.4030000   16.8380000  
H 17.1290000   13.9530000   17.4510000  
H 17.6530000   12.0600000   16.8960000  
H 17.1480000   14.2830000   13.2520000  
H 17.7610000   20.0810000   14.5660000  
H 17.4190000   19.0990000   17.7830000  
H 17.4290000   16.8470000   12.8160000  
