76
111 
C 13.1210000   21.3070000   26.2400000  
C 12.2930000   20.4710000   27.0540000  
C 12.1880000   19.0840000   26.9290000  
C 13.0660000   18.4000000   26.0420000  
C 14.0380000   19.1650000   25.2390000  
C 14.0810000   20.5340000   25.3940000  
C 11.1920000   18.2060000   27.3040000  
C 11.5790000   17.0070000   26.6890000  
N 12.7570000   17.1150000   25.9070000  
O  9.7380000   15.7100000   27.6300000  
C 10.7810000   15.7630000   26.7870000  
O 11.1460000   14.7530000   26.2360000  
O 14.8900000   21.2650000   24.6300000  
O 13.0970000   22.5320000   26.3090000  
H 11.5470000   20.9790000   27.6420000  
H 10.3100000   18.3570000   27.8860000  
H  9.6110000   16.5400000   28.0240000  
H 15.3110000   20.7440000   23.9770000  
C 14.9470000   18.4640000   24.3360000  
C 14.6180000   18.4620000   22.9920000  
C 15.3590000   17.9120000   22.0240000  
C 16.4350000   17.0490000   22.2210000  
C 16.8360000   17.0130000   23.6290000  
C 16.1040000   17.6610000   24.6710000  
C 13.4880000   19.0900000   22.4970000  
C 13.7220000   19.0250000   21.1170000  
N 14.8760000   18.3450000   20.8630000  
O 11.8000000   20.3130000   20.3510000  
C 12.9200000   19.6450000   20.0070000  
O 13.2690000   19.6060000   18.8700000  
O 17.9250000   16.2500000   23.9210000  
O 16.4190000   17.6050000   26.0350000  
H 12.7750000   19.7360000   22.9530000  
H 11.7540000   20.1340000   21.2640000  
H 15.2540000   18.1410000   19.9380000  
H 18.1100000   15.6680000   23.1710000  
H 15.6480000   17.8710000   26.6180000  
C 17.2440000   16.5350000   21.0770000  
C 18.6210000   16.8970000   20.8370000  
C 19.3520000   16.2820000   19.8920000  
C 18.8660000   15.3330000   18.9410000  
C 17.5120000   15.0440000   19.0930000  
C 16.7470000   15.6220000   20.1030000  
C 19.5320000   17.7860000   21.4700000  
C 20.8230000   17.6530000   20.9040000  
N 20.6960000   16.6650000   19.9030000  
O 21.5930000   19.4270000   22.2230000  
C 21.9520000   18.4560000   21.2630000  
O 23.0730000   18.2790000   20.7810000  
O 16.9880000   14.1320000   18.2110000  
O 15.4490000   15.2440000   20.1910000  
H 19.3520000   18.2870000   22.4090000  
H 20.6750000   19.2620000   22.3720000  
H 21.4030000   16.1640000   19.4240000  
H 17.5630000   14.0050000   17.4130000  
H 15.2310000   14.5070000   19.5950000  
C 19.8280000   14.7140000   17.9070000  
C 20.7820000   13.7560000   18.2740000  
C 21.6300000   13.1260000   17.3410000  
C 21.5900000   13.4870000   15.9700000  
C 20.6670000   14.5130000   15.6160000  
C 19.8100000   15.0770000   16.5360000  
C 20.8900000   13.0330000   19.5300000  
C 21.8850000   12.1190000   19.3370000  
N 22.3810000   12.1600000   17.9900000  
O 21.6690000   11.1680000   21.5230000  
C 22.2060000   11.0510000   20.2660000  
O 22.9540000   10.1910000   20.0210000  
O 20.6680000   14.9710000   14.3570000  
O 18.8870000   16.0010000   16.1890000  
H 20.3530000   13.3130000   20.4220000  
H 21.0070000   11.9160000   21.5120000  
H 23.1460000   11.7010000   17.5350000  
H 19.8490000   15.5800000   14.2810000  
H 18.1850000   16.1150000   16.9160000  
H 22.2880000   13.0650000   15.2280000  
