76
111 
C 19.6650000   11.5200000   17.0400000  
C 20.3440000   10.5910000   17.9640000  
C 20.2290000   10.7900000   19.3190000  
C 19.3740000   11.7180000   19.8940000  
C 18.6710000   12.6380000   19.0390000  
C 18.8250000   12.5150000   17.6620000  
C 20.7230000    9.9940000   20.4160000  
C 20.1410000   10.6290000   21.4990000  
N 19.1940000   11.5840000   21.1870000  
O 21.3340000    9.1920000   22.8490000  
C 20.4180000   10.1760000   22.9050000  
O 19.9450000   10.6770000   23.9220000  
O 18.2470000   13.4130000   16.7650000  
O 19.8210000   11.3230000   15.8410000  
H 21.0540000    9.8700000   17.5130000  
H 21.4270000    9.2590000   20.3280000  
H 21.2180000    8.8240000   21.9250000  
H 17.7950000   14.0970000   17.2480000  
C 18.0140000   13.7400000   19.7000000  
C 18.8570000   14.8440000   19.8600000  
C 18.4280000   15.9190000   20.4690000  
C 17.1060000   16.1600000   20.9670000  
C 16.2230000   15.0410000   20.6660000  
C 16.6430000   13.8470000   20.0510000  
C 20.2590000   15.0800000   19.5690000  
C 20.6120000   16.3800000   20.0930000  
N 19.4070000   16.8650000   20.6520000  
O 22.8520000   16.3430000   19.5180000  
C 21.8230000   17.0990000   19.9440000  
O 21.9390000   18.2880000   20.1770000  
O 14.9680000   15.1010000   21.1740000  
O 15.8270000   12.7460000   19.8550000  
H 20.9390000   14.4660000   18.8750000  
H 22.5150000   15.4970000   19.5340000  
H 19.3120000   17.7790000   21.1240000  
H 14.7770000   16.0020000   21.4210000  
H 15.0540000   12.8620000   20.4830000  
C 16.6640000   17.3620000   21.7080000  
C 15.5140000   18.0250000   21.3250000  
C 15.0230000   19.0850000   21.9680000  
C 15.6150000   19.7170000   23.0640000  
C 16.7390000   19.0380000   23.5700000  
C 17.2590000   17.9070000   22.8920000  
C 14.5590000   17.8500000   20.2290000  
C 13.6340000   18.8500000   20.2940000  
N 13.9010000   19.6080000   21.4210000  
O 12.4420000   18.1160000   18.4080000  
C 12.5310000   19.1100000   19.3350000  
O 11.7500000   20.0080000   19.4920000  
O 17.4130000   19.4810000   24.6800000  
O 18.3410000   17.2870000   23.4610000  
H 14.4800000   17.1390000   19.4690000  
H 13.2510000   17.6270000   18.4500000  
H 13.4740000   20.4870000   21.6020000  
H 16.9990000   20.2990000   25.0340000  
H 18.5530000   17.6680000   24.2990000  
C 15.0610000   20.9040000   23.7350000  
C 14.4170000   20.8790000   24.9570000  
C 13.9700000   22.0750000   25.5280000  
C 14.1860000   23.3540000   25.0280000  
C 14.7720000   23.4410000   23.7450000  
C 15.2840000   22.2300000   23.1670000  
C 13.9590000   19.7330000   25.7340000  
C 13.3490000   20.3140000   26.8880000  
N 13.4570000   21.7180000   26.7800000  
O 12.7700000   18.1930000   27.8570000  
C 12.6080000   19.5100000   27.9130000  
O 12.0450000   20.0210000   28.8530000  
O 14.8900000   24.6360000   23.0640000  
O 15.7240000   22.2690000   21.8790000  
H 14.0620000   18.6570000   25.5020000  
H 13.3260000   18.0250000   27.1030000  
H 12.9030000   22.2920000   27.4060000  
H 15.3730000   24.3920000   22.2490000  
H 16.1150000   21.3970000   21.7260000  
H 13.9430000   24.2720000   25.5710000  
