76
111 
C 11.6670000   21.4470000   19.2890000  
C 10.3450000   20.8360000   19.4690000  
C 10.2780000   19.6880000   20.1100000  
C 11.3900000   18.9750000   20.6760000  
C 12.7360000   19.4570000   20.4440000  
C 12.8710000   20.6180000   19.7640000  
C  9.1510000   18.9660000   20.5640000  
C  9.5960000   17.9620000   21.3520000  
N 10.9960000   17.9720000   21.4590000  
O  7.4440000   17.1060000   21.8440000  
C  8.7230000   16.8890000   21.9700000  
O  9.1450000   15.9540000   22.6130000  
O 14.0890000   21.1040000   19.3340000  
O 11.7890000   22.5720000   18.8190000  
H  9.4280000   21.4230000   19.2320000  
H  8.1410000   19.1480000   20.2800000  
H  7.3280000   17.9860000   21.4180000  
H 14.8260000   20.5350000   19.6740000  
C 13.9410000   18.7710000   20.8930000  
C 14.5670000   17.8790000   19.9400000  
C 15.5950000   17.0920000   20.3690000  
C 16.1950000   17.1250000   21.6970000  
C 15.5520000   17.9840000   22.5840000  
C 14.4680000   18.8440000   22.2150000  
C 14.2850000   17.5750000   18.5560000  
C 15.1740000   16.5200000   18.2080000  
N 16.0280000   16.2720000   19.3850000  
O 14.3980000   16.3490000   15.9920000  
C 15.3050000   15.9210000   16.8520000  
O 16.2150000   15.1900000   16.5090000  
O 16.1780000   18.1220000   23.8110000  
O 13.8970000   19.7200000   23.0520000  
H 13.5450000   18.0150000   17.9750000  
H 13.8270000   17.0090000   16.4810000  
H 16.6550000   15.5420000   19.5220000  
H 16.9410000   17.4590000   23.9120000  
H 13.0550000   19.8720000   22.5930000  
C 17.3510000   16.3080000   22.0430000  
C 18.6110000   16.5720000   21.4920000  
C 19.6690000   15.8570000   21.8660000  
C 19.7240000   14.9080000   22.9260000  
C 18.4580000   14.5820000   23.4230000  
C 17.2430000   15.3140000   23.0130000  
C 19.1670000   17.4520000   20.4270000  
C 20.5560000   17.1580000   20.3440000  
N 20.8380000   16.1520000   21.2200000  
O 21.1340000   18.8220000   18.7870000  
C 21.6090000   17.8830000   19.6260000  
O 22.8000000   17.6090000   19.7450000  
O 18.4360000   13.6580000   24.4030000  
O 16.0250000   14.9940000   23.5590000  
H 18.6740000   18.2650000   19.8670000  
H 20.2460000   18.7040000   18.9510000  
H 21.7320000   15.7530000   21.3700000  
H 19.2550000   13.1750000   24.2220000  
H 16.2000000   14.5850000   24.4370000  
C 20.9210000   14.1300000   23.1930000  
C 21.8110000   14.4960000   24.1920000  
C 22.8930000   13.7220000   24.5140000  
C 23.3210000   12.6480000   23.7380000  
C 22.4580000   12.2250000   22.7560000  
C 21.3080000   12.9240000   22.5140000  
C 21.5930000   15.4660000   25.3220000  
C 22.6420000   15.2440000   26.2370000  
N 23.4070000   14.1560000   25.7200000  
O 22.0910000   16.7620000   28.0200000  
C 22.9500000   15.7600000   27.5770000  
O 23.8690000   15.3580000   28.2330000  
O 22.8640000   11.1350000   22.1110000  
O 20.4530000   12.5020000   21.5050000  
H 20.6120000   16.0270000   25.5150000  
H 21.5780000   17.1250000   27.2670000  
H 24.1180000   13.6820000   26.3190000  
H 22.2770000   11.0340000   21.3300000  
H 19.6600000   13.1380000   21.3800000  
H 24.2590000   12.2160000   23.8890000  
