76
111 
C 21.5930000   14.7530000   26.4750000  
C 21.9520000   13.3190000   26.5760000  
C 21.5160000   12.4410000   25.6680000  
C 20.8100000   12.8530000   24.5190000  
C 20.4720000   14.2610000   24.2470000  
C 20.8750000   15.1750000   25.1780000  
C 21.7500000   11.0540000   25.4950000  
C 21.1300000   10.7500000   24.2730000  
N 20.5600000   11.8490000   23.6780000  
O 21.2460000    8.4050000   24.4810000  
C 20.9030000    9.3810000   23.6460000  
O 20.5200000    9.2370000   22.4710000  
O 20.5440000   16.5010000   25.1450000  
O 21.9160000   15.5460000   27.2780000  
H 22.4960000   13.0330000   27.4380000  
H 22.3590000   10.3580000   26.0210000  
H 21.1960000    8.7530000   25.3610000  
H 20.0110000   16.6720000   24.3230000  
C 19.6000000   14.6780000   23.1340000  
C 18.2230000   14.3810000   23.0750000  
C 17.4250000   15.0170000   22.1280000  
C 17.8640000   15.8920000   21.1360000  
C 19.2670000   16.0890000   21.0810000  
C 20.1210000   15.5030000   22.0830000  
C 17.3360000   13.7110000   23.9610000  
C 16.0310000   13.9530000   23.5570000  
N 16.1100000   14.7970000   22.4200000  
O 15.1390000   12.6460000   25.2760000  
C 14.7780000   13.4860000   24.2570000  
O 13.6030000   13.7270000   24.0660000  
O 19.7830000   16.9330000   20.1390000  
O 21.4440000   15.6210000   22.0740000  
H 17.6300000   13.1600000   24.7830000  
H 16.1450000   12.5960000   25.2780000  
H 15.3500000   14.9990000   21.7160000  
H 18.9800000   17.3110000   19.7300000  
H 21.7080000   16.3220000   21.4410000  
C 16.9260000   16.7960000   20.4110000  
C 15.9850000   17.6180000   21.1110000  
C 15.1460000   18.4170000   20.4240000  
C 14.9920000   18.5800000   19.0570000  
C 15.9720000   17.8360000   18.3520000  
C 16.8350000   16.8860000   19.0000000  
C 15.7830000   17.8140000   22.5040000  
C 14.7220000   18.7120000   22.6380000  
N 14.3130000   19.0160000   21.3140000  
O 14.5510000   18.7590000   25.0670000  
C 13.9620000   19.1080000   23.8920000  
O 13.0020000   19.8560000   23.9100000  
O 16.0540000   18.0270000   16.9930000  
O 17.6750000   16.1020000   18.2310000  
H 16.2180000   17.2740000   23.3550000  
H 15.2960000   18.3240000   24.7370000  
H 13.5670000   19.6250000   20.8830000  
H 15.2870000   18.6500000   16.8340000  
H 17.4070000   16.2360000   17.2560000  
C 13.9600000   19.4200000   18.4450000  
C 13.8570000   20.8040000   18.7220000  
C 12.9380000   21.6030000   18.1610000  
C 11.9920000   21.2260000   17.2450000  
C 11.9900000   19.8500000   16.9030000  
C 12.9880000   18.9630000   17.4760000  
C 14.7660000   21.5850000   19.4690000  
C 14.3140000   22.9100000   19.3020000  
N 13.1430000   22.9230000   18.5970000  
O 16.0860000   23.9160000   20.4600000  
C 15.0230000   24.1350000   19.6720000  
O 14.7160000   25.2770000   19.3630000  
O 11.0730000   19.4070000   15.9150000  
O 12.9940000   17.6360000   17.1520000  
H 15.7020000   21.2700000   19.9860000  
H 16.3680000   23.0700000   20.0940000  
H 12.5930000   23.7390000   18.2780000  
H 11.2060000   18.3870000   15.8820000  
H 13.2710000   17.1290000   17.9000000  
H 11.2630000   21.9540000   16.8370000  
