76
111 
C 17.9440000   11.7610000   16.1380000  
C 18.6390000   10.6670000   16.7660000  
C 19.0580000   10.8010000   18.0720000  
C 18.8050000   11.9610000   18.8710000  
C 18.0020000   13.0400000   18.3240000  
C 17.6180000   12.9450000   17.0000000  
C 19.7590000    9.9480000   18.9300000  
C 19.9360000   10.6320000   20.0950000  
N 19.2370000   11.8460000   20.1090000  
O 21.0900000    8.8340000   21.0740000  
C 20.5950000   10.0740000   21.2600000  
O 20.6800000   10.5470000   22.3740000  
O 17.0970000   13.9790000   16.3100000  
O 17.6350000   11.8480000   14.9440000  
H 18.7900000    9.8090000   16.0720000  
H 19.9210000    8.8500000   18.7940000  
H 20.8360000    8.6110000   20.1980000  
H 16.7300000   14.5160000   17.0270000  
C 17.6190000   14.1910000   19.0510000  
C 18.2700000   15.4700000   18.9760000  
C 18.0140000   16.4270000   19.8590000  
C 17.0600000   16.4520000   20.8570000  
C 16.4460000   15.2010000   21.0400000  
C 16.7350000   14.0930000   20.1360000  
C 19.2620000   15.9730000   17.9950000  
C 19.3940000   17.3230000   18.3020000  
N 18.6730000   17.5650000   19.4440000  
O 20.6960000   17.9600000   16.3790000  
C 20.1450000   18.3660000   17.5680000  
O 20.2790000   19.5440000   17.9550000  
O 15.5440000   14.9850000   22.0560000  
O 16.0770000   12.9120000   20.3750000  
H 19.8810000   15.3970000   17.2170000  
H 20.2320000   17.1750000   16.1260000  
H 18.6170000   18.4590000   19.8940000  
H 15.3510000   15.8210000   22.4710000  
H 15.6900000   13.0760000   21.2330000  
C 16.7910000   17.6340000   21.7670000  
C 15.4940000   18.1530000   21.8320000  
C 15.1330000   19.1250000   22.7510000  
C 16.0200000   19.6900000   23.7150000  
C 17.3810000   19.2270000   23.6280000  
C 17.7550000   18.2270000   22.6830000  
C 14.3550000   18.0100000   20.9620000  
C 13.3370000   18.8540000   21.4700000  
N 13.8310000   19.5640000   22.5800000  
O 11.5860000   18.2460000   19.9750000  
C 11.8620000   18.9240000   21.0840000  
O 10.9620000   19.4420000   21.7340000  
O 18.4000000   19.7870000   24.3240000  
O 19.0470000   17.7540000   22.5880000  
H 14.1370000   17.1920000   20.2570000  
H 12.4250000   18.0960000   19.4840000  
H 13.4420000   20.2860000   23.1530000  
H 18.0240000   20.4540000   24.8590000  
H 19.4800000   18.4010000   23.1890000  
C 15.6390000   20.7100000   24.7770000  
C 15.1970000   20.2380000   26.0260000  
C 15.2760000   21.0970000   27.1570000  
C 15.6290000   22.4120000   27.0630000  
C 16.0040000   22.8870000   25.7820000  
C 16.1010000   22.0560000   24.6420000  
C 14.8850000   18.9250000   26.5810000  
C 14.7790000   19.0040000   27.9420000  
N 14.9160000   20.3350000   28.3020000  
O 14.5320000   16.7140000   28.2120000  
C 14.6930000   17.8410000   28.8350000  
O 14.4910000   17.9710000   29.9940000  
O 16.3630000   24.2050000   25.7360000  
O 16.5820000   22.5520000   23.4910000  
H 14.9010000   18.0360000   25.9070000  
H 14.5450000   16.9740000   27.2850000  
H 14.8620000   20.7460000   29.2200000  
H 16.9680000   24.4350000   25.0190000  
H 16.5560000   21.8050000   22.8240000  
H 15.7110000   23.0520000   27.9510000  
