76
111 
C 22.5550000   12.7330000   25.3910000  
C 22.6350000   11.5540000   24.4620000  
C 21.7900000   11.5270000   23.4050000  
C 20.8980000   12.5000000   23.0400000  
C 20.7920000   13.7580000   23.7810000  
C 21.6170000   13.7980000   24.8910000  
C 21.6180000   10.4760000   22.4230000  
C 20.6280000   10.9600000   21.5560000  
N 20.1540000   12.2140000   22.0070000  
O 20.5760000    8.9870000   20.1240000  
C 20.0180000   10.2400000   20.4100000  
O 19.0950000   10.5870000   19.7340000  
O 21.6390000   14.8810000   25.7490000  
O 23.2340000   12.8320000   26.3890000  
H 23.2870000   10.6480000   24.7050000  
H 22.2500000    9.6100000   22.3460000  
H 21.0760000    8.5930000   20.8290000  
H 21.2390000   15.6250000   25.2500000  
C 19.9170000   14.8540000   23.3910000  
C 18.5330000   14.8040000   23.6910000  
C 17.6720000   15.7260000   23.2410000  
C 18.0390000   16.6620000   22.2210000  
C 19.3120000   16.7500000   21.9010000  
C 20.3020000   15.8590000   22.5170000  
C 17.7470000   13.8150000   24.3450000  
C 16.3650000   14.2420000   24.2050000  
N 16.3680000   15.3830000   23.3900000  
O 15.5300000   12.4210000   25.3710000  
C 15.1720000   13.5490000   24.6970000  
O 14.0070000   13.8260000   24.5410000  
O 19.6750000   17.6970000   21.0020000  
O 21.5800000   15.9250000   22.0610000  
H 18.0570000   12.9520000   24.9190000  
H 16.4840000   12.6810000   25.4720000  
H 15.5790000   15.9880000   23.2140000  
H 18.9690000   17.9710000   20.4350000  
H 21.6390000   16.7970000   21.6480000  
C 16.9180000   17.3320000   21.4960000  
C 15.8970000   18.1010000   22.1170000  
C 14.8910000   18.6390000   21.4280000  
C 14.7330000   18.6070000   20.0530000  
C 15.6820000   17.7590000   19.4100000  
C 16.7920000   17.1380000   20.0600000  
C 15.8100000   18.5970000   23.4980000  
C 14.7130000   19.5140000   23.4510000  
N 14.2100000   19.5600000   22.1680000  
O 14.5270000   20.1130000   25.8110000  
C 14.0670000   20.3320000   24.5640000  
O 13.1060000   21.0630000   24.3930000  
O 15.7010000   17.6490000   18.0660000  
O 17.6250000   16.1980000   19.4440000  
H 16.4380000   18.4600000   24.3710000  
H 15.2700000   19.5400000   25.7700000  
H 13.3890000   20.1360000   21.9550000  
H 14.8940000   18.1380000   17.8220000  
H 17.4120000   16.0750000   18.5290000  
C 13.6250000   19.3270000   19.3670000  
C 13.5870000   20.7170000   19.2410000  
C 12.6300000   21.3480000   18.5870000  
C 11.4630000   20.7290000   18.2110000  
C 11.4720000   19.2860000   18.2940000  
C 12.5600000   18.5680000   18.8360000  
C 14.6440000   21.6380000   19.3510000  
C 14.2240000   22.8890000   18.8740000  
N 12.9580000   22.7200000   18.4640000  
O 16.3150000   24.0460000   19.1990000  
C 15.0600000   24.0700000   18.6770000  
O 14.6690000   25.0590000   18.0530000  
O 10.3880000   18.5730000   17.7800000  
O 12.5840000   17.1650000   18.8310000  
H 15.7080000   21.3460000   19.6700000  
H 16.5580000   23.1540000   19.4800000  
H 12.3400000   23.2650000   17.9430000  
H 10.3600000   17.6030000   18.0520000  
H 13.0340000   16.7890000   19.5720000  
H 10.7040000   21.2610000   17.7150000  
