76
111 
C 19.9800000   10.9090000   18.0730000  
C 20.2750000    9.9370000   19.0900000  
C 19.9290000   10.1970000   20.3870000  
C 19.5590000   11.4760000   20.8770000  
C 19.3240000   12.5820000   19.9230000  
C 19.5190000   12.2700000   18.5750000  
C 20.0480000    9.3710000   21.5580000  
C 19.7920000   10.2290000   22.6240000  
N 19.4250000   11.5240000   22.1420000  
O 19.8090000    8.6540000   24.4500000  
C 19.8130000    9.9520000   24.1110000  
O 19.8900000   10.7800000   25.0270000  
O 19.1630000   13.1180000   17.5360000  
O 20.0720000   10.6450000   16.8770000  
H 20.4970000    8.9980000   18.6730000  
H 20.3520000    8.3350000   21.6850000  
H 19.5310000    8.2250000   23.6260000  
H 18.6600000   13.8170000   17.8970000  
C 18.6620000   13.7270000   20.4190000  
C 19.3350000   14.9720000   20.4070000  
C 18.7480000   16.1870000   20.6980000  
C 17.4220000   16.2790000   21.1670000  
C 16.7240000   15.0490000   21.1380000  
C 17.3330000   13.8080000   20.7510000  
C 20.6990000   15.3600000   20.0260000  
C 20.8990000   16.7140000   20.2440000  
N 19.6440000   17.2520000   20.7030000  
O 22.9190000   16.9240000   19.0540000  
C 22.0160000   17.6440000   19.8120000  
O 22.0850000   18.8230000   20.0550000  
O 15.4220000   15.0820000   21.5020000  
O 16.5620000   12.6660000   20.5830000  
H 21.5530000   14.6470000   19.6860000  
H 22.5130000   16.1220000   18.8380000  
H 19.4010000   18.2690000   20.9310000  
H 15.0390000   15.9580000   21.5110000  
H 15.7740000   12.8950000   21.0940000  
C 16.7870000   17.4880000   21.6980000  
C 15.7560000   18.1980000   20.9510000  
C 15.1300000   19.3100000   21.4180000  
C 15.3180000   19.8500000   22.6840000  
C 16.3230000   19.2230000   23.4330000  
C 16.9540000   18.0150000   23.0170000  
C 15.3250000   18.0120000   19.5650000  
C 14.4360000   19.0820000   19.2970000  
N 14.2060000   19.8090000   20.4880000  
O 14.1600000   18.6360000   16.9720000  
C 13.6760000   19.3330000   18.0390000  
O 12.8180000   20.2230000   17.8810000  
O 16.6730000   19.7370000   24.6270000  
O 17.8470000   17.3820000   23.9090000  
H 15.6790000   17.2810000   18.8150000  
H 14.6490000   17.9380000   17.3690000  
H 13.5030000   20.5010000   20.5800000  
H 16.2810000   20.6280000   24.7450000  
H 18.0790000   18.0830000   24.5220000  
C 14.6270000   21.0730000   23.1610000  
C 13.7640000   20.9770000   24.2710000  
C 13.0860000   22.0150000   24.8000000  
C 13.2190000   23.3370000   24.3140000  
C 14.0390000   23.5080000   23.1390000  
C 14.6670000   22.3770000   22.5550000  
C 13.4860000   19.7890000   24.9970000  
C 12.6340000   20.1490000   25.9960000  
N 12.4820000   21.5430000   25.9610000  
O 12.3640000   17.8530000   26.7430000  
C 12.0630000   19.1580000   26.9440000  
O 11.2240000   19.4730000   27.8100000  
O 14.3000000   24.7160000   22.6220000  
O 15.4620000   22.4490000   21.4030000  
H 13.7530000   18.7520000   24.6350000  
H 13.0010000   17.8940000   26.0550000  
H 11.7630000   22.1540000   26.4190000  
H 15.0070000   24.6550000   21.9430000  
H 15.9550000   21.6700000   21.3470000  
H 12.6010000   24.1630000   24.6120000  
