76
111 
C 10.9740000   15.7650000   18.0650000  
C 10.2850000   16.9790000   17.5550000  
C 10.9350000   18.2400000   17.6890000  
C 12.2020000   18.3470000   18.2400000  
C 12.9710000   17.1950000   18.7180000  
C 12.4220000   15.9270000   18.5780000  
C 10.4940000   19.5060000   17.4070000  
C 11.6250000   20.3580000   17.6680000  
N 12.6870000   19.5630000   18.1940000  
O 10.6150000   22.3950000   16.8490000  
C 11.7760000   21.7650000   17.2890000  
O 12.7850000   22.3240000   17.4780000  
O 13.0210000   14.7950000   19.0120000  
O 10.4080000   14.7260000   18.0980000  
H  9.2880000   16.7470000   17.1940000  
H  9.4920000   19.8000000   17.0960000  
H  9.9060000   21.7410000   16.7510000  
H 13.8820000   15.0270000   19.3760000  
C 14.3110000   17.3860000   19.2360000  
C 14.3700000   17.9920000   20.5150000  
C 15.5520000   17.9360000   21.2370000  
C 16.7950000   17.2440000   20.8220000  
C 16.6330000   16.6270000   19.5320000  
C 15.4490000   16.7850000   18.7160000  
C 13.3380000   18.4410000   21.3970000  
C 13.9810000   18.7410000   22.6120000  
N 15.3890000   18.4770000   22.4590000  
O 12.0670000   19.4720000   23.7890000  
C 13.4590000   19.2870000   23.8560000  
O 14.1630000   19.5890000   24.7830000  
O 17.6900000   15.8090000   19.0430000  
O 15.4180000   16.1030000   17.5640000  
H 12.3220000   18.4800000   21.2460000  
H 11.8800000   19.0600000   22.9340000  
H 16.0710000   18.5450000   23.1890000  
H 18.4980000   16.0290000   19.5940000  
H 16.3370000   15.8230000   17.5190000  
C 17.9250000   17.0420000   21.7320000  
C 17.8150000   16.2890000   22.9550000  
C 18.8730000   16.2050000   23.8880000  
C 20.2140000   16.6720000   23.5470000  
C 20.3300000   17.3550000   22.3460000  
C 19.2580000   17.5950000   21.4790000  
C 16.7890000   15.3410000   23.5260000  
C 17.3840000   14.7080000   24.6600000  
N 18.6320000   15.2900000   24.9070000  
O 15.5060000   13.3850000   25.1720000  
C 16.7110000   13.8540000   25.6310000  
O 17.2130000   13.5790000   26.7220000  
O 21.6000000   17.8060000   22.0100000  
O 19.4730000   18.3520000   20.3710000  
H 15.8020000   15.1890000   23.1910000  
H 15.4660000   13.6950000   24.2170000  
H 19.1510000   15.2050000   25.8150000  
H 22.0310000   18.0180000   22.8840000  
H 20.4570000   18.4460000   20.2480000  
C 21.4750000   16.3090000   24.3610000  
C 22.2150000   15.1750000   23.9600000  
C 23.2100000   14.6200000   24.7590000  
C 23.6110000   15.2540000   25.9060000  
C 22.9090000   16.4120000   26.3340000  
C 21.8010000   16.8760000   25.5910000  
C 22.0270000   14.2430000   22.8640000  
C 22.9350000   13.2080000   23.0190000  
N 23.6570000   13.4430000   24.1910000  
O 22.0900000   11.9400000   21.1440000  
C 22.9460000   12.0060000   22.1730000  
O 23.8700000   11.2200000   22.2660000  
O 23.2080000   16.8390000   27.5530000  
O 20.9340000   17.7670000   26.2270000  
H 21.2470000   14.3790000   22.1390000  
H 21.3330000   12.4930000   21.3760000  
H 24.3240000   12.7560000   24.5540000  
H 22.4020000   16.9310000   28.1120000  
H 20.5440000   18.4150000   25.6080000  
H 24.3290000   14.7030000   26.5490000  
