76
111 
C 21.5950000   11.1580000   21.6200000  
C 21.6010000   10.4140000   22.8910000  
C 20.7820000   10.6950000   23.9440000  
C 19.9600000   11.8000000   24.0060000  
C 19.8690000   12.6330000   22.7860000  
C 20.6370000   12.3520000   21.6730000  
C 20.5570000    9.9420000   25.1170000  
C 19.6370000   10.7270000   25.8300000  
N 19.2910000   11.8730000   25.1100000  
O 19.4520000    9.1360000   27.6060000  
C 18.9800000   10.3460000   27.0460000  
O 18.0950000   11.0480000   27.6030000  
O 20.6770000   13.0700000   20.5290000  
O 22.2970000   10.8580000   20.6370000  
H 22.2020000    9.5300000   22.8700000  
H 21.0110000    8.9990000   25.4840000  
H 20.1900000    8.8200000   27.1230000  
H 20.3020000   13.9050000   20.8370000  
C 18.9920000   13.8270000   22.8440000  
C 19.4690000   15.1290000   22.9070000  
C 18.6780000   16.1730000   22.4480000  
C 17.3520000   16.1310000   22.0920000  
C 16.8080000   14.8130000   22.1050000  
C 17.6030000   13.7230000   22.5050000  
C 20.8130000   15.5910000   23.0940000  
C 20.7910000   16.9140000   22.6640000  
N 19.4900000   17.3050000   22.3080000  
O 23.1320000   17.5420000   23.2470000  
C 21.9310000   17.8850000   22.6540000  
O 21.7030000   18.9910000   22.1630000  
O 15.4520000   14.7070000   21.7900000  
O 17.1180000   12.5150000   22.4520000  
H 21.7510000   15.0350000   23.3260000  
H 23.1050000   16.6820000   23.6290000  
H 19.2660000   18.1750000   21.8360000  
H 14.9320000   15.3940000   22.2130000  
H 16.1400000   12.5130000   22.2270000  
C 16.5390000   17.3320000   21.6880000  
C 16.5070000   17.8340000   20.3520000  
C 15.6990000   18.8970000   20.0110000  
C 14.8300000   19.5810000   20.9220000  
C 14.8770000   19.1030000   22.2410000  
C 15.5890000   17.9100000   22.5910000  
C 17.1680000   17.4450000   19.1090000  
C 16.7270000   18.2550000   18.0640000  
N 15.8200000   19.1710000   18.6350000  
O 18.1590000   17.4410000   16.3820000  
C 17.1450000   18.2820000   16.6700000  
O 16.6290000   18.9070000   15.8040000  
O 14.1210000   19.7790000   23.1630000  
O 15.3980000   17.4950000   23.8720000  
H 17.9390000   16.6380000   19.0000000  
H 18.4240000   17.0280000   17.2250000  
H 15.2910000   19.7850000   18.1730000  
H 13.6830000   20.5520000   22.7720000  
H 14.8940000   18.2540000   24.2400000  
C 14.1010000   20.8880000   20.5960000  
C 12.6600000   20.9300000   20.5560000  
C 12.0040000   22.1010000   20.2640000  
C 12.6720000   23.2690000   19.8900000  
C 14.0500000   23.3290000   19.8680000  
C 14.7310000   22.1160000   20.1390000  
C 11.7110000   19.9150000   20.9240000  
C 10.4450000   20.4640000   20.7350000  
N 10.6330000   21.7840000   20.2590000  
O  9.1600000   18.5850000   21.4450000  
C  9.1060000   19.8390000   20.9870000  
O  8.0010000   20.3080000   20.6720000  
O 14.6980000   24.4870000   19.5120000  
O 16.1010000   22.1690000   20.1610000  
H 11.8970000   18.8510000   21.0180000  
H 10.0420000   18.4160000   21.2690000  
H  9.8550000   22.4600000   20.1990000  
H 15.5900000   24.1470000   19.3180000  
H 16.4440000   21.2890000   20.5320000  
H 12.1490000   24.1870000   19.5560000  
