76
111 
C 21.2560000   10.8740000   23.6700000  
C 21.2510000   10.8130000   25.1440000  
C 20.4320000   11.7490000   25.7930000  
C 19.6400000   12.7140000   25.2170000  
C 19.5190000   12.6610000   23.7930000  
C 20.2680000   11.7510000   23.0470000  
C 20.3160000   11.9450000   27.2150000  
C 19.4790000   13.0330000   27.3080000  
N 19.0900000   13.5510000   26.1090000  
O 19.4830000   13.0420000   29.7330000  
C 18.9400000   13.5470000   28.5960000  
O 18.0060000   14.3470000   28.5770000  
O 20.3100000   11.8260000   21.6780000  
O 21.9390000   10.0780000   23.0330000  
H 21.8290000   10.0530000   25.6970000  
H 20.7070000   11.3590000   27.9630000  
H 20.2960000   12.6540000   29.4810000  
H 19.9820000   12.7130000   21.4470000  
C 18.6860000   13.6180000   23.1780000  
C 19.0830000   15.0000000   23.1440000  
C 18.2470000   15.9350000   22.7170000  
C 16.9850000   15.7720000   22.1490000  
C 16.5930000   14.3730000   22.2150000  
C 17.4740000   13.3020000   22.6590000  
C 20.3430000   15.6650000   23.3690000  
C 20.0830000   17.0460000   23.3190000  
N 18.6950000   17.1920000   22.9710000  
O 22.2140000   17.6740000   24.0850000  
C 20.9540000   18.1090000   23.8430000  
O 20.5120000   19.2470000   24.0270000  
O 15.3100000   13.9990000   21.8590000  
O 16.9650000   11.9760000   22.6120000  
H 21.2990000   15.2480000   23.5590000  
H 22.1870000   16.6730000   23.9960000  
H 18.2180000   18.0740000   22.8090000  
H 14.7770000   14.8180000   21.8100000  
H 17.5090000   11.4690000   23.2380000  
C 16.1580000   16.8780000   21.6000000  
C 16.4840000   17.5110000   20.3600000  
C 15.7230000   18.4750000   19.8940000  
C 14.5710000   19.0200000   20.4430000  
C 14.2380000   18.4200000   21.7000000  
C 14.9750000   17.3190000   22.2250000  
C 17.6750000   17.4510000   19.5080000  
C 17.3800000   18.4670000   18.5320000  
N 16.1670000   18.9750000   18.7540000  
O 19.2610000   18.1070000   17.0250000  
C 18.1920000   18.8510000   17.3550000  
O 17.8060000   19.8040000   16.6640000  
O 13.0260000   18.8290000   22.2520000  
O 14.4930000   16.5690000   23.2920000  
H 18.4810000   16.7680000   19.4780000  
H 19.4980000   17.3970000   17.6160000  
H 15.6950000   19.7600000   18.3140000  
H 12.7150000   19.3970000   21.5560000  
H 13.8000000   17.0850000   23.7540000  
C 14.0410000   20.2650000   19.9000000  
C 13.1430000   20.1810000   18.8290000  
C 12.6870000   21.2990000   18.1040000  
C 13.0850000   22.6160000   18.4740000  
C 14.0850000   22.7380000   19.4830000  
C 14.5890000   21.5490000   20.1640000  
C 12.5370000   19.0430000   18.2000000  
C 11.6660000   19.5290000   17.2210000  
N 11.8350000   20.9070000   17.1020000  
O 10.7790000   17.4660000   16.5970000  
C 10.8640000   18.7200000   16.2530000  
O 10.2380000   19.2110000   15.3070000  
O 14.4260000   24.0010000   19.9130000  
O 15.6310000   21.6840000   20.9810000  
H 12.6990000   18.0190000   18.4230000  
H 11.3670000   17.4420000   17.3500000  
H 11.2730000   21.4080000   16.4510000  
H 15.0940000   23.9540000   20.5930000  
H 15.6880000   20.9330000   21.5300000  
H 12.6540000   23.5250000   18.0470000  
