76
111 
C 21.6610000   10.8520000   21.2380000  
C 21.8290000   10.5190000   19.8250000  
C 21.2720000   11.3420000   18.9160000  
C 20.4500000   12.4230000   19.1980000  
C 20.1800000   12.8080000   20.5480000  
C 20.7550000   11.9920000   21.5400000  
C 21.2730000   11.2610000   17.4520000  
C 20.4570000   12.2950000   17.0470000  
N 19.9760000   12.9990000   18.1440000  
O 20.5810000   11.7770000   14.6640000  
C 20.1890000   12.6590000   15.6610000  
O 19.5940000   13.6660000   15.3220000  
O 20.5810000   12.1670000   22.8670000  
O 22.3020000   10.2660000   22.1020000  
H 22.5750000    9.7760000   19.5140000  
H 21.6750000   10.4960000   16.8140000  
H 20.8320000   11.0220000   15.1950000  
H 19.8320000   12.8030000   22.7550000  
C 19.2400000   13.9390000   20.8590000  
C 17.9190000   13.8380000   21.2320000  
C 17.1240000   14.9100000   21.5930000  
C 17.6080000   16.2280000   21.4980000  
C 18.9300000   16.3610000   21.0570000  
C 19.7500000   15.2530000   20.7910000  
C 17.0550000   12.6390000   21.2660000  
C 15.7430000   13.1380000   21.4330000  
N 15.8290000   14.4950000   21.7520000  
O 14.4740000   11.1900000   20.7780000  
C 14.3970000   12.4450000   21.2560000  
O 13.3560000   13.0660000   21.3650000  
O 19.4960000   17.6020000   20.9800000  
O 21.0790000   15.4020000   20.4020000  
H 17.2930000   11.6210000   20.9510000  
H 15.4180000   11.0230000   20.8110000  
H 15.0090000   15.0660000   21.9950000  
H 18.8190000   18.3380000   20.9350000  
H 21.4130000   14.5210000   20.2150000  
C 16.6860000   17.4110000   21.7870000  
C 16.5270000   17.7700000   23.0950000  
C 15.6120000   18.7480000   23.3800000  
C 14.8140000   19.4120000   22.4060000  
C 15.0160000   19.0840000   21.0510000  
C 15.9300000   17.9940000   20.7150000  
C 17.0760000   17.2270000   24.3420000  
C 16.3770000   18.0680000   25.3470000  
N 15.4410000   18.9680000   24.7290000  
O 17.3890000   17.0470000   27.2250000  
C 16.6500000   18.0630000   26.8130000  
O 16.3130000   18.8600000   27.6260000  
O 14.4250000   19.6440000   19.9990000  
O 16.0240000   17.4440000   19.4340000  
H 17.7820000   16.4690000   24.5190000  
H 17.6100000   16.4930000   26.5180000  
H 14.7830000   19.6720000   25.1030000  
H 13.7380000   20.2680000   20.4190000  
H 15.4050000   17.9150000   18.8550000  
C 13.7120000   20.3250000   22.8910000  
C 13.9390000   21.7160000   23.1190000  
C 12.9920000   22.6280000   23.4800000  
C 11.6350000   22.2550000   23.4750000  
C 11.3530000   20.9380000   23.1080000  
C 12.3740000   19.9910000   22.8720000  
C 15.2620000   22.3550000   23.3150000  
C 14.9890000   23.6630000   23.7370000  
N 13.5360000   23.8330000   23.7840000  
O 17.3270000   24.3260000   23.9300000  
C 15.9930000   24.7220000   24.1070000  
O 15.6640000   25.8130000   24.5210000  
O 10.0260000   20.5080000   23.0800000  
O 12.0080000   18.7560000   22.5550000  
H 16.2440000   21.9700000   23.0670000  
H 17.3120000   23.4240000   23.5910000  
H 13.0870000   24.5090000   24.3520000  
H 10.0500000   19.5310000   23.0990000  
H 12.7600000   18.2100000   22.7240000  
H 10.8330000   23.0260000   23.6950000  
