76
111 
C 18.2190000   12.3160000   27.5730000  
C 19.5400000   12.6370000   28.0520000  
C 20.2400000   13.6890000   27.5430000  
C 19.7960000   14.4020000   26.4070000  
C 18.5370000   14.0970000   25.8830000  
C 17.8010000   13.0470000   26.3940000  
C 21.4940000   14.1430000   27.8810000  
C 21.7270000   15.1570000   26.9480000  
N 20.6770000   15.3460000   26.0710000  
O 23.8810000   15.4560000   27.8880000  
C 22.9690000   15.9650000   27.0470000  
O 23.1950000   17.0450000   26.5130000  
O 16.5920000   12.5410000   25.9340000  
O 17.5630000   11.4690000   28.1250000  
H 19.8520000   12.1300000   28.9410000  
H 22.1490000   13.6980000   28.6110000  
H 23.6950000   14.5320000   28.0430000  
H 16.5180000   13.0410000   25.0680000  
C 18.0240000   14.8670000   24.7640000  
C 17.9440000   14.3430000   23.5090000  
C 17.4110000   15.0150000   22.4460000  
C 17.0530000   16.3290000   22.4770000  
C 17.0050000   16.9380000   23.7860000  
C 17.5990000   16.2470000   24.8410000  
C 18.1040000   12.9610000   23.0450000  
C 17.7020000   12.9200000   21.6610000  
N 17.1930000   14.1880000   21.3820000  
O 17.9940000   10.6530000   21.1770000  
C 17.5750000   11.8020000   20.6760000  
O 17.0980000   11.8290000   19.5460000  
O 16.2820000   18.0850000   23.9920000  
O 17.5110000   16.7750000   26.0900000  
H 18.4230000   12.1430000   23.6710000  
H 17.9980000   10.7550000   22.1740000  
H 16.7130000   14.4960000   20.5880000  
H 15.7690000   18.3120000   23.1820000  
H 18.2560000   16.3280000   26.5610000  
C 16.5750000   17.0460000   21.2260000  
C 15.1780000   17.3230000   21.0840000  
C 14.7080000   17.9030000   19.9810000  
C 15.4820000   18.3300000   18.8920000  
C 16.9000000   18.1280000   18.9900000  
C 17.4040000   17.5230000   20.1890000  
C 14.1040000   16.9130000   21.9650000  
C 12.9970000   17.4650000   21.2770000  
N 13.3900000   18.0300000   20.0290000  
O 11.4640000   16.7560000   22.9100000  
C 11.5540000   17.3290000   21.6770000  
O 10.5750000   17.5510000   20.9310000  
O 17.7660000   18.3810000   17.9010000  
O 18.7060000   17.1400000   20.1950000  
H 14.1110000   16.3600000   22.8160000  
H 12.4140000   16.5990000   23.0900000  
H 12.7590000   18.2860000   19.2750000  
H 17.2090000   18.9050000   17.3450000  
H 19.1990000   17.5480000   19.4110000  
C 14.9200000   18.9500000   17.6690000  
C 15.3860000   20.1930000   17.2280000  
C 15.0070000   20.7550000   16.0210000  
C 14.1040000   20.2160000   15.1970000  
C 13.4350000   19.1570000   15.6760000  
C 13.8260000   18.4320000   16.8650000  
C 16.3600000   21.0800000   17.7800000  
C 16.5480000   22.1970000   16.9700000  
N 15.7040000   21.9630000   15.8790000  
O 18.2630000   23.1890000   18.2370000  
C 17.5370000   23.2380000   17.0690000  
O 17.5670000   24.1710000   16.2320000  
O 12.3580000   18.7300000   14.9070000  
O 13.2550000   17.2050000   17.1570000  
H 16.9010000   20.9990000   18.7670000  
H 17.9740000   22.4290000   18.7260000  
H 15.5740000   22.6460000   15.1500000  
H 12.2430000   17.7800000   15.1470000  
H 13.5450000   16.8400000   17.9730000  
H 13.8480000   20.6620000   14.2520000  
