76
111 
C 16.5010000   13.4630000   28.4100000  
C 17.8560000   13.4830000   28.9680000  
C 18.7800000   14.3000000   28.4050000  
C 18.5820000   15.0350000   27.2480000  
C 17.3420000   14.8610000   26.4940000  
C 16.2850000   14.1480000   27.0740000  
C 20.0200000   14.7510000   28.8890000  
C 20.4630000   15.7020000   28.0010000  
N 19.5650000   15.8890000   27.0080000  
O 22.5000000   16.1360000   29.2470000  
C 21.7750000   16.3630000   28.0720000  
O 22.1730000   17.0450000   27.1170000  
O 15.0870000   14.0390000   26.5500000  
O 15.5670000   12.9430000   29.0420000  
H 17.9730000   12.9060000   29.9090000  
H 20.4680000   14.5140000   29.8370000  
H 21.8120000   15.6010000   29.6610000  
H 15.0910000   14.1820000   25.6640000  
C 17.2900000   15.6720000   25.2480000  
C 17.6450000   14.9170000   24.1190000  
C 17.4590000   15.4410000   22.8870000  
C 16.8010000   16.6990000   22.6510000  
C 16.4320000   17.4150000   23.7590000  
C 16.6700000   16.9100000   25.1020000  
C 18.1010000   13.5740000   23.8660000  
C 18.3830000   13.4570000   22.5310000  
N 17.9210000   14.6120000   21.8740000  
O 18.9610000   11.0610000   22.7230000  
C 18.7650000   12.1650000   21.8940000  
O 18.8550000   11.9340000   20.7120000  
O 15.5690000   18.4700000   23.5560000  
O 16.3370000   17.6330000   26.2020000  
H 18.1080000   12.8170000   24.6340000  
H 18.5800000   11.3310000   23.5480000  
H 17.7290000   14.6780000   20.8850000  
H 15.5660000   18.6150000   22.6160000  
H 16.7900000   17.2360000   26.9700000  
C 16.7070000   17.1530000   21.2220000  
C 15.4870000   17.1410000   20.6620000  
C 15.3830000   17.5140000   19.3810000  
C 16.4500000   17.8160000   18.5250000  
C 17.7520000   17.8600000   19.1020000  
C 17.8570000   17.4560000   20.4270000  
C 14.1470000   16.7760000   21.0900000  
C 13.3060000   16.9520000   19.9540000  
N 14.0590000   17.5400000   18.9550000  
O 11.3590000   16.1340000   20.9950000  
C 11.8480000   16.7680000   19.9650000  
O 11.0930000   17.1570000   19.0800000  
O 18.8640000   18.2660000   18.3620000  
O 19.0430000   17.4200000   21.0080000  
H 13.8250000   16.4000000   22.0030000  
H 12.0260000   15.8160000   21.6180000  
H 13.7940000   17.7780000   18.0560000  
H 18.6840000   18.1890000   17.4600000  
H 19.7070000   17.3550000   20.3220000  
C 16.2320000   18.0720000   17.0690000  
C 16.2560000   19.3560000   16.5030000  
C 15.8930000   19.6090000   15.2220000  
C 15.6460000   18.5730000   14.3410000  
C 15.5710000   17.2690000   14.8500000  
C 15.8040000   17.0300000   16.2010000  
C 16.6360000   20.6560000   17.0940000  
C 16.5620000   21.5950000   16.0530000  
N 16.0600000   20.9820000   14.9590000  
O 17.2450000   23.5090000   17.3360000  
C 16.8020000   23.0520000   16.1470000  
O 16.7020000   23.8520000   15.2800000  
O 15.3000000   16.2460000   13.8890000  
O 15.6850000   15.7450000   16.6020000  
H 16.9180000   20.7870000   18.1470000  
H 16.9430000   22.8690000   17.9560000  
H 16.0850000   21.4580000   14.0990000  
H 15.4100000   15.3530000   14.2420000  
H 16.1190000   15.6960000   17.4990000  
H 15.4890000   18.7410000   13.2890000  
