76
111 
C 16.8780000   12.6020000   15.5510000  
C 17.9750000   11.6090000   15.6580000  
C 18.6100000   11.4270000   16.8680000  
C 18.4580000   12.3070000   17.9490000  
C 17.5770000   13.3920000   17.7430000  
C 16.7910000   13.5590000   16.6390000  
C 19.5410000   10.4530000   17.2630000  
C 19.8120000   10.7380000   18.5840000  
N 19.2110000   11.9580000   18.9570000  
O 21.1620000    8.8900000   18.6910000  
C 20.7700000    9.9720000   19.3430000  
O 21.2470000   10.3440000   20.4170000  
O 15.8680000   14.5730000   16.5870000  
O 16.1810000   12.5690000   14.5170000  
H 18.1670000   10.9650000   14.8780000  
H 19.8940000    9.6240000   16.6780000  
H 20.7220000    9.0240000   17.8520000  
H 15.8430000   15.0570000   17.4190000  
C 17.4260000   14.3780000   18.8570000  
C 17.9950000   15.6120000   18.7740000  
C 17.7060000   16.6020000   19.7420000  
C 17.0320000   16.3140000   20.9750000  
C 16.4690000   14.9940000   21.0130000  
C 16.7190000   14.0320000   20.0350000  
C 18.7020000   16.3200000   17.7100000  
C 18.7580000   17.6200000   18.0730000  
N 18.2290000   17.8150000   19.3310000  
O 20.2200000   18.2340000   16.2430000  
C 19.5180000   18.7030000   17.3180000  
O 19.7200000   19.8210000   17.7080000  
O 15.7260000   14.6620000   22.1360000  
O 16.2010000   12.8020000   20.2040000  
H 18.9240000   15.8490000   16.7190000  
H 20.0340000   17.3290000   16.2940000  
H 18.1070000   18.6670000   19.8080000  
H 15.7680000   15.4290000   22.7450000  
H 15.8020000   12.7290000   21.1080000  
C 16.8170000   17.3500000   22.0470000  
C 15.5340000   17.8320000   22.4830000  
C 15.4020000   18.8370000   23.4860000  
C 16.4900000   19.5040000   24.1060000  
C 17.7620000   18.9140000   23.6900000  
C 17.9390000   18.0440000   22.6060000  
C 14.1850000   17.2980000   22.2620000  
C 13.3290000   18.0590000   22.9850000  
N 14.0720000   18.9840000   23.7230000  
O 11.4470000   16.7770000   22.3060000  
C 11.8560000   17.8860000   23.0060000  
O 11.0520000   18.4180000   23.7460000  
O 18.9010000   19.4160000   24.4000000  
O 19.1710000   17.6230000   22.2580000  
H 13.9720000   16.5360000   21.4950000  
H 12.3170000   16.5050000   21.9230000  
H 13.6440000   19.6360000   24.3360000  
H 18.5670000   19.8750000   25.1770000  
H 19.7550000   17.9780000   22.9480000  
C 16.4140000   20.5320000   25.1800000  
C 16.0340000   20.2200000   26.5050000  
C 15.9380000   21.1760000   27.4920000  
C 16.3040000   22.5020000   27.2750000  
C 16.6090000   22.9130000   25.9160000  
C 16.7000000   21.9200000   24.9210000  
C 15.6920000   18.9740000   27.0590000  
C 15.3920000   19.2130000   28.4050000  
N 15.5490000   20.6010000   28.6500000  
O 14.6180000   16.9700000   28.8960000  
C 14.9090000   18.1780000   29.3770000  
O 14.5600000   18.4710000   30.5480000  
O 17.0990000   24.1900000   25.6660000  
O 17.1610000   22.3030000   23.6970000  
H 15.7870000   17.9960000   26.5980000  
H 14.9710000   17.0440000   27.9980000  
H 15.3900000   21.0410000   29.5320000  
H 17.4340000   24.1230000   24.7560000  
H 16.8730000   21.5440000   23.1170000  
H 16.2400000   23.1930000   28.0910000  
