76
111 
C 14.8920000   12.4210000   16.0480000  
C 16.1170000   12.1070000   15.2830000  
C 17.3420000   12.4400000   15.8500000  
C 17.5050000   13.1460000   17.0450000  
C 16.3580000   13.6230000   17.7250000  
C 15.0720000   13.2930000   17.2880000  
C 18.6530000   12.2860000   15.3250000  
C 19.4960000   12.8210000   16.3240000  
N 18.7990000   13.4100000   17.3490000  
O 21.5070000   12.2710000   15.2760000  
C 20.9420000   12.8250000   16.3410000  
O 21.6170000   13.3160000   17.2270000  
O 13.8480000   13.6130000   17.7970000  
O 13.8430000   12.0340000   15.6030000  
H 15.9990000   11.4140000   14.4160000  
H 18.9280000   11.7660000   14.4110000  
H 20.7240000   12.1220000   14.6800000  
H 14.0770000   14.1540000   18.6070000  
C 16.5240000   14.4390000   18.8750000  
C 16.3080000   15.7830000   18.8260000  
C 16.5700000   16.5410000   19.8890000  
C 17.0890000   16.1010000   21.0900000  
C 17.2910000   14.6780000   21.2040000  
C 16.9290000   13.8190000   20.1230000  
C 15.8670000   16.7090000   17.7270000  
C 16.0900000   17.9700000   18.2490000  
N 16.6570000   17.8630000   19.5230000  
O 15.1160000   19.1860000   16.4150000  
C 15.6920000   19.2810000   17.6350000  
O 16.0270000   20.3370000   18.1130000  
O 17.5780000   14.0700000   22.4050000  
O 17.1990000   12.4710000   20.2010000  
H 15.4580000   16.3770000   16.7290000  
H 14.7020000   18.3240000   16.4190000  
H 17.0320000   18.5730000   20.1860000  
H 17.8700000   14.7950000   23.0050000  
H 18.1940000   12.4110000   20.3000000  
C 17.3870000   17.0600000   22.1990000  
C 16.3180000   17.8110000   22.7630000  
C 16.6060000   18.6300000   23.8150000  
C 17.8170000   18.8040000   24.5040000  
C 18.8550000   18.0070000   23.9960000  
C 18.6480000   17.1660000   22.8590000  
C 14.8820000   17.9270000   22.4920000  
C 14.3850000   18.8540000   23.4460000  
N 15.5120000   19.3130000   24.2000000  
O 12.1620000   18.6760000   22.7530000  
C 13.0300000   19.2740000   23.6300000  
O 12.6570000   20.0010000   24.5570000  
O 20.0770000   18.0570000   24.6240000  
O 19.7240000   16.3850000   22.4680000  
H 14.3000000   17.4180000   21.6620000  
H 12.7430000   18.0730000   22.2810000  
H 15.5250000   19.8860000   25.0260000  
H 20.0110000   18.5760000   25.4410000  
H 20.5700000   16.8060000   22.4240000  
C 17.8430000   19.6810000   25.7010000  
C 17.2160000   19.2090000   26.8410000  
C 17.2260000   19.8440000   28.0270000  
C 17.7070000   21.1880000   28.1930000  
C 18.4940000   21.6370000   27.1060000  
C 18.5210000   20.9140000   25.8720000  
C 16.6630000   17.9220000   27.1660000  
C 16.3070000   17.8800000   28.4960000  
N 16.6230000   19.1470000   29.0310000  
O 15.7910000   15.4930000   28.4790000  
C 15.8330000   16.6070000   29.2290000  
O 15.4650000   16.5960000   30.3980000  
O 19.0510000   22.8660000   27.1840000  
O 19.1880000   21.4240000   24.8050000  
H 16.4510000   17.2210000   26.4940000  
H 15.6060000   15.8510000   27.5530000  
H 16.7170000   19.4610000   30.0300000  
H 19.6920000   22.9450000   26.4450000  
H 19.1550000   20.8000000   24.0800000  
H 17.5710000   21.7350000   29.1660000  
