76
111 
C 21.0620000   12.8750000   16.8720000  
C 20.1660000   12.5830000   15.6900000  
C 18.8540000   13.0260000   15.7490000  
C 18.3240000   13.7930000   16.7690000  
C 19.1080000   14.0380000   17.9380000  
C 20.4700000   13.6530000   17.9680000  
C 17.8300000   12.9930000   14.7500000  
C 16.7560000   13.7080000   15.2310000  
N 17.0860000   14.2070000   16.4870000  
O 15.3390000   13.1180000   13.3140000  
C 15.4530000   13.7210000   14.5300000  
O 14.4820000   14.2500000   15.0440000  
O 21.2540000   14.1270000   19.0360000  
O 22.1380000   12.4060000   16.8860000  
H 20.4700000   11.9120000   14.8900000  
H 17.9040000   12.6210000   13.6820000  
H 16.1840000   12.9700000   12.8440000  
H 20.7070000   14.6830000   19.5760000  
C 18.4910000   14.8360000   18.9830000  
C 17.5390000   14.3180000   19.9150000  
C 16.9610000   15.0830000   20.8110000  
C 17.0680000   16.4730000   20.8810000  
C 18.1260000   16.9630000   20.0640000  
C 18.8190000   16.2000000   19.1320000  
C 17.0150000   12.9720000   20.0550000  
C 16.0540000   13.1150000   21.1120000  
N 16.0960000   14.4450000   21.5740000  
O 15.0760000   11.0610000   20.8660000  
C 14.9560000   12.2190000   21.5160000  
O 14.0700000   12.5070000   22.2800000  
O 18.4680000   18.2800000   20.2190000  
O 19.7640000   16.7420000   18.2000000  
H 17.2480000   12.0380000   19.5470000  
H 15.9000000   11.1110000   20.2680000  
H 15.3900000   14.9200000   22.1840000  
H 18.1480000   18.6570000   21.0780000  
H 19.8540000   16.0070000   17.5550000  
C 16.5730000   17.2900000   22.0570000  
C 17.0540000   17.0660000   23.3610000  
C 16.5970000   17.7140000   24.4290000  
C 15.5280000   18.7110000   24.3770000  
C 14.9410000   18.9120000   23.0940000  
C 15.5120000   18.1710000   21.9950000  
C 17.9450000   16.1460000   23.8730000  
C 18.0290000   16.2000000   25.2450000  
N 17.2200000   17.3240000   25.5740000  
O 19.4150000   14.2920000   25.7580000  
C 18.7400000   15.4050000   26.2320000  
O 18.6960000   15.6080000   27.4370000  
O 13.9490000   19.7670000   22.8950000  
O 14.9980000   18.2830000   20.7110000  
H 18.3240000   15.2960000   23.3680000  
H 19.5880000   14.4380000   24.8150000  
H 17.2160000   17.8290000   26.3820000  
H 13.8730000   20.3280000   23.6970000  
H 14.4040000   19.0830000   20.7400000  
C 15.2720000   19.5210000   25.5960000  
C 15.4700000   20.9180000   25.6320000  
C 15.0670000   21.6600000   26.6660000  
C 14.3790000   21.1290000   27.7950000  
C 14.2350000   19.7510000   27.8590000  
C 14.6940000   18.9220000   26.7820000  
C 16.1850000   21.8750000   24.7710000  
C 16.1940000   23.1210000   25.4260000  
N 15.5060000   22.9600000   26.6330000  
O 17.2680000   24.2730000   23.5790000  
C 16.7580000   24.4150000   24.8760000  
O 16.8130000   25.4420000   25.5450000  
O 13.5240000   19.2190000   28.9180000  
O 14.5690000   17.5770000   26.8850000  
H 16.6410000   21.7080000   23.8000000  
H 16.9650000   23.3840000   23.3350000  
H 15.3260000   23.6580000   27.3350000  
H 13.6140000   18.2490000   28.8580000  
H 14.5980000   17.1670000   25.9640000  
H 13.9720000   21.7040000   28.6030000  
