76
111 
C 21.3870000   12.4640000   17.3210000  
C 20.5210000   11.8840000   16.3570000  
C 19.2040000   12.2920000   16.3100000  
C 18.6520000   13.2580000   17.1360000  
C 19.5030000   13.8020000   18.1690000  
C 20.8340000   13.3670000   18.3060000  
C 18.1590000   11.8150000   15.5090000  
C 17.1040000   12.6950000   15.7010000  
N 17.4160000   13.5510000   16.7590000  
O 15.8390000   11.5510000   14.0710000  
C 15.9140000   12.6090000   14.8880000  
O 15.0360000   13.4320000   14.9330000  
O 21.7350000   13.7620000   19.2110000  
O 22.5510000   12.1750000   17.3170000  
H 20.9180000   11.2120000   15.6200000  
H 18.3300000   10.9530000   14.8000000  
H 16.6700000   11.0290000   14.0990000  
H 21.2790000   14.2020000   19.9290000  
C 18.9700000   14.7830000   19.0930000  
C 18.0520000   14.3680000   20.0700000  
C 17.4700000   15.2640000   20.9220000  
C 17.6230000   16.6710000   20.8970000  
C 18.6020000   17.1170000   19.9650000  
C 19.2530000   16.2110000   19.1110000  
C 17.4620000   13.0530000   20.3340000  
C 16.5680000   13.2570000   21.4110000  
N 16.5770000   14.6090000   21.7770000  
O 16.0460000   10.9110000   21.6120000  
C 15.9100000   12.1400000   22.1380000  
O 15.1370000   12.3090000   23.0860000  
O 18.8990000   18.4160000   19.9550000  
O 20.2170000   16.6200000   18.2510000  
H 17.6980000   12.0890000   19.9090000  
H 16.6480000   11.0160000   20.8380000  
H 15.9340000   15.1070000   22.4380000  
H 18.1300000   18.8630000   20.4080000  
H 20.4740000   15.8660000   17.6540000  
C 16.9190000   17.5670000   21.8720000  
C 17.1190000   17.5670000   23.2700000  
C 16.2990000   18.2960000   24.1170000  
C 15.2490000   19.1170000   23.7560000  
C 15.2300000   19.3290000   22.3270000  
C 15.9280000   18.5260000   21.4480000  
C 17.8440000   16.6310000   24.1830000  
C 17.3220000   16.8050000   25.5080000  
N 16.4470000   17.9540000   25.4530000  
O 18.3810000   14.9390000   26.5530000  
C 17.7130000   16.0920000   26.7110000  
O 17.3020000   16.4700000   27.7570000  
O 14.3740000   20.2700000   21.8560000  
O 15.5500000   18.4820000   20.1680000  
H 18.7190000   16.0470000   23.9570000  
H 18.1730000   14.6480000   25.7060000  
H 16.0790000   18.4630000   26.2670000  
H 13.8160000   20.7020000   22.4980000  
H 14.9180000   19.1990000   19.9760000  
C 14.4000000   19.9460000   24.7150000  
C 14.9100000   21.1830000   25.2010000  
C 14.1510000   21.9770000   26.0370000  
C 12.9000000   21.5750000   26.5240000  
C 12.4570000   20.2900000   26.1600000  
C 13.1980000   19.4680000   25.2610000  
C 16.1600000   21.8970000   25.0200000  
C 16.1470000   23.0580000   25.7600000  
N 14.9050000   23.0910000   26.4010000  
O 18.3390000   23.6350000   25.2710000  
C 17.2350000   23.9810000   25.9380000  
O 17.1310000   25.0070000   26.5730000  
O 11.2410000   19.8470000   26.5120000  
O 12.5710000   18.3180000   24.7980000  
H 16.9940000   21.6010000   24.3890000  
H 18.1070000   22.7210000   25.0020000  
H 14.5690000   23.7780000   27.0180000  
H 10.9960000   19.0440000   26.0580000  
H 13.3250000   17.8600000   24.3730000  
H 12.2920000   22.1860000   27.2760000  
