76
111 
C 21.0450000   10.9730000   24.4770000  
C 21.9520000   10.6970000   23.3650000  
C 21.9800000   11.4370000   22.2390000  
C 21.1420000   12.5370000   21.9770000  
C 20.1460000   12.9070000   22.9650000  
C 20.1740000   12.2400000   24.2270000  
C 22.7450000   11.2630000   21.0440000  
C 22.2650000   12.1920000   20.1430000  
N 21.1960000   12.8900000   20.7060000  
O 23.5670000   11.3580000   18.2920000  
C 22.6380000   12.2910000   18.7050000  
O 22.2090000   13.1070000   17.9570000  
O 19.3240000   12.5600000   25.2140000  
O 20.9540000   10.2850000   25.4950000  
H 22.5170000    9.8000000   23.5040000  
H 23.5540000   10.4980000   20.9030000  
H 23.6980000   10.7290000   19.0460000  
H 18.7410000   13.2960000   24.9160000  
C 19.2190000   14.0120000   22.6700000  
C 18.1140000   13.8150000   21.8020000  
C 17.2180000   14.7710000   21.5200000  
C 17.2700000   16.1000000   22.0460000  
C 18.3970000   16.3650000   22.8690000  
C 19.3260000   15.3070000   23.2160000  
C 17.7330000   12.7620000   20.9750000  
C 16.6430000   13.0750000   20.1780000  
N 16.2280000   14.3730000   20.6000000  
O 16.5900000   11.1430000   18.7170000  
C 16.0570000   12.2920000   19.0780000  
O 15.0840000   12.6610000   18.4580000  
O 18.6100000   17.6170000   23.3140000  
O 20.4380000   15.5620000   24.0450000  
H 18.2200000   11.7430000   21.0650000  
H 17.3820000   10.9580000   19.2170000  
H 15.6130000   14.9560000   20.1140000  
H 17.7520000   18.0940000   23.1880000  
H 20.9750000   14.7190000   24.0310000  
C 16.3260000   17.1750000   21.7430000  
C 15.5190000   17.7030000   22.8450000  
C 14.6190000   18.7140000   22.6150000  
C 14.3950000   19.3040000   21.3540000  
C 15.1440000   18.8040000   20.2640000  
C 16.0660000   17.7560000   20.4400000  
C 15.5670000   17.4670000   24.2920000  
C 14.6790000   18.3560000   24.8020000  
N 14.1540000   19.2440000   23.8140000  
O 14.9830000   17.5500000   26.9560000  
C 14.2730000   18.3790000   26.2320000  
O 13.4810000   19.1520000   26.7370000  
O 14.9870000   19.2110000   18.9560000  
O 16.8220000   17.2820000   19.3630000  
H 16.0990000   16.7140000   24.8300000  
H 15.3350000   16.9010000   26.4190000  
H 13.5140000   20.0340000   23.9140000  
H 14.6040000   20.0460000   18.9340000  
H 16.4210000   17.4890000   18.4640000  
C 13.3230000   20.3430000   21.1750000  
C 13.7320000   21.6640000   20.9060000  
C 12.9160000   22.7380000   20.6860000  
C 11.5120000   22.5420000   20.7510000  
C 11.0290000   21.2480000   20.8560000  
C 11.9020000   20.1630000   21.1240000  
C 15.0320000   22.2500000   20.8750000  
C 14.9530000   23.6350000   20.5940000  
N 13.5920000   23.9220000   20.4630000  
O 17.2700000   23.9820000   20.7640000  
C 16.1140000   24.4800000   20.5540000  
O 16.0270000   25.6230000   20.2210000  
O  9.6580000   20.9770000   20.7290000  
O 11.4500000   18.9070000   21.0870000  
H 15.9370000   21.7300000   20.9560000  
H 17.1880000   23.0870000   21.0940000  
H 13.1600000   24.8230000   20.3830000  
H  9.5110000   19.9940000   20.6990000  
H 12.2430000   18.2900000   21.2660000  
H 10.8600000   23.4430000   20.5970000  
