76
111 
C  9.4810000   18.3930000   21.4550000  
C  9.3880000   19.8360000   21.6550000  
C 10.5080000   20.6110000   21.8230000  
C 11.8130000   20.0230000   21.8490000  
C 12.0200000   18.6380000   21.5540000  
C 10.8880000   17.8240000   21.2880000  
C 10.6360000   21.9950000   21.9510000  
C 12.0140000   22.2030000   22.1260000  
N 12.7080000   20.9760000   21.9930000  
O 11.7930000   24.6010000   22.5300000  
C 12.6140000   23.5140000   22.3260000  
O 13.8390000   23.5520000   22.4310000  
O 10.9180000   16.5030000   21.1850000  
O  8.4880000   17.6830000   21.3170000  
H  8.3810000   20.2270000   21.6100000  
H  9.7700000   22.6980000   22.0050000  
H 10.8870000   24.3390000   22.2760000  
H 11.8640000   16.1610000   21.3150000  
C 13.4030000   18.1620000   21.4970000  
C 13.9350000   17.3800000   22.5130000  
C 15.2090000   17.0050000   22.4510000  
C 16.1700000   17.3880000   21.4260000  
C 15.5890000   18.1460000   20.3600000  
C 14.1960000   18.5040000   20.4360000  
C 13.3350000   16.7790000   23.7020000  
C 14.3130000   16.0970000   24.3570000  
N 15.5330000   16.1120000   23.5090000  
O 12.9510000   15.4890000   26.2100000  
C 14.1440000   15.3180000   25.5880000  
O 14.8620000   14.3650000   25.8480000  
O 16.2710000   18.4000000   19.2280000  
O 13.7500000   19.2830000   19.4430000  
H 12.2430000   16.6690000   23.9230000  
H 12.5080000   16.1900000   25.7160000  
H 16.3950000   15.6090000   23.5380000  
H 17.1800000   18.3190000   19.3880000  
H 14.0540000   20.1690000   19.7380000  
C 17.6070000   16.8760000   21.5440000  
C 17.8930000   15.4640000   21.5790000  
C 19.2210000   15.0650000   21.6060000  
C 20.3300000   15.9200000   21.6910000  
C 19.9990000   17.3260000   21.7650000  
C 18.6360000   17.7840000   21.7070000  
C 17.1300000   14.2370000   21.4830000  
C 18.0150000   13.1510000   21.5980000  
N 19.3540000   13.6530000   21.7870000  
O 16.4210000   11.5050000   21.0880000  
C 17.7240000   11.7030000   21.2670000  
O 18.5410000   10.7720000   21.1820000  
O 20.9940000   18.2360000   21.8830000  
O 18.4170000   19.1520000   21.6630000  
H 16.0880000   14.1210000   21.3340000  
H 16.0270000   12.4200000   21.1540000  
H 20.2810000   13.1570000   21.7670000  
H 21.8440000   17.9220000   21.5330000  
H 19.1310000   19.5690000   22.1210000  
C 21.7670000   15.4330000   21.9070000  
C 22.5160000   14.6430000   20.9880000  
C 23.8310000   14.2530000   21.2540000  
C 24.4770000   14.6130000   22.3960000  
C 23.7720000   15.4390000   23.3060000  
C 22.4050000   15.7410000   23.1440000  
C 22.2550000   14.1230000   19.5860000  
C 23.2810000   13.3720000   19.1240000  
N 24.2340000   13.4300000   20.1830000  
O 22.5480000   13.0510000   16.9010000  
C 23.4830000   12.6840000   17.8020000  
O 24.4680000   12.0650000   17.4940000  
O 24.3280000   15.6800000   24.5230000  
O 21.6700000   16.3170000   24.2270000  
H 21.2910000   14.3480000   19.0570000  
H 21.9230000   13.4770000   17.4830000  
H 25.1940000   13.0550000   20.0670000  
H 23.6600000   16.0970000   25.0420000  
H 20.8460000   16.6180000   23.8550000  
H 25.5380000   14.3170000   22.5390000  
