76
111 
C 21.6860000   10.6020000   21.1900000  
C 21.4050000    9.9760000   22.5070000  
C 20.5320000   10.5970000   23.3190000  
C 19.9100000   11.8020000   23.0400000  
C 20.0750000   12.4460000   21.7820000  
C 20.8860000   11.8360000   20.8650000  
C 20.0700000   10.2110000   24.6280000  
C 19.1940000   11.2420000   25.0160000  
N 19.0770000   12.2360000   23.9830000  
O 18.4840000   10.2420000   27.0370000  
C 18.3970000   11.3670000   26.3020000  
O 17.6660000   12.3060000   26.6190000  
O 21.2000000   12.4830000   19.7580000  
O 22.4540000   10.1390000   20.3700000  
H 21.9760000    9.1300000   22.7150000  
H 20.2040000    9.1960000   25.1210000  
H 19.1880000    9.7480000   26.6240000  
H 20.8400000   13.3770000   19.8360000  
C 19.1910000   13.6290000   21.5060000  
C 19.6100000   14.9350000   21.6000000  
C 18.7450000   16.0100000   21.5790000  
C 17.4140000   15.9350000   21.3440000  
C 16.9670000   14.6680000   21.1080000  
C 17.8570000   13.5080000   21.2310000  
C 20.9000000   15.5110000   21.9950000  
C 20.7680000   16.8660000   22.0990000  
N 19.3900000   17.2130000   21.9240000  
O 23.2140000   17.3710000   22.1930000  
C 21.8980000   17.7890000   22.3490000  
O 21.6840000   18.8740000   22.8060000  
O 15.6820000   14.5600000   20.7800000  
O 17.3140000   12.2980000   20.9240000  
H 21.7800000   14.9870000   22.3100000  
H 23.0410000   16.6510000   21.6830000  
H 18.9250000   18.0950000   22.1050000  
H 15.3410000   15.4310000   20.5960000  
H 16.3130000   12.3580000   20.7580000  
C 16.5900000   17.1930000   21.3810000  
C 16.2830000   17.8360000   20.1960000  
C 15.5340000   19.0110000   20.2300000  
C 15.1260000   19.6430000   21.4050000  
C 15.3790000   19.0030000   22.6300000  
C 16.1660000   17.7880000   22.6340000  
C 16.5460000   17.5610000   18.8070000  
C 15.9830000   18.5850000   18.0610000  
N 15.3440000   19.5290000   18.9740000  
O 16.5800000   17.5690000   16.0230000  
C 15.9680000   18.6330000   16.5680000  
O 15.3800000   19.4730000   15.9020000  
O 14.9430000   19.5430000   23.8000000  
O 16.4310000   17.2580000   23.8600000  
H 17.0080000   16.6310000   18.4350000  
H 17.0650000   17.0590000   16.6980000  
H 14.9030000   20.3480000   18.6900000  
H 14.1990000   20.1340000   23.5990000  
H 16.0780000   17.8230000   24.5350000  
C 14.3080000   20.9140000   21.4160000  
C 12.9670000   20.9110000   21.7820000  
C 12.2020000   22.0680000   21.7610000  
C 12.7670000   23.3050000   21.3670000  
C 14.0450000   23.3140000   20.8340000  
C 14.8090000   22.1070000   20.8080000  
C 12.0990000   19.7890000   22.2260000  
C 10.8880000   20.4140000   22.5950000  
N 10.9380000   21.7560000   22.3140000  
O  9.9220000   18.3500000   23.3220000  
C  9.7400000   19.7040000   23.3060000  
O  8.7680000   20.1770000   23.7780000  
O 14.5750000   24.4610000   20.4330000  
O 16.1590000   22.2260000   20.4020000  
H 12.2210000   18.6830000   22.1940000  
H 10.7470000   18.0560000   22.9630000  
H 10.1460000   22.4350000   22.5270000  
H 15.4610000   24.2680000   20.0790000  
H 16.6010000   21.3650000   20.6070000  
H 12.1990000   24.2340000   21.2740000  
