76
111 
C 20.8920000   10.5350000   23.0480000  
C 21.9030000   10.4260000   21.9720000  
C 21.8120000   11.2850000   20.8850000  
C 21.0300000   12.4040000   20.8810000  
C 20.1400000   12.6390000   22.0020000  
C 19.9860000   11.7330000   22.9980000  
C 22.5500000   11.3380000   19.6700000  
C 22.1380000   12.4890000   19.0690000  
N 21.1820000   13.1690000   19.8290000  
O 23.7770000   12.2800000   17.3960000  
C 22.7490000   13.0160000   17.8280000  
O 22.3680000   14.0480000   17.2960000  
O 19.2540000   11.8640000   24.1110000  
O 20.8730000    9.7920000   24.0200000  
H 22.5380000    9.5510000   22.0990000  
H 23.3410000   10.6990000   19.3280000  
H 23.7340000   11.5710000   18.0410000  
H 18.6550000   12.5740000   23.8930000  
C 19.3030000   13.8060000   22.0310000  
C 18.0320000   13.7640000   21.4420000  
C 17.2070000   14.8200000   21.4860000  
C 17.4060000   16.0100000   22.1110000  
C 18.7130000   16.0650000   22.7980000  
C 19.6070000   14.9620000   22.7360000  
C 17.2880000   12.6360000   20.8340000  
C 16.0150000   13.1380000   20.4590000  
N 16.0750000   14.5200000   20.8040000  
O 14.9480000   11.2690000   19.5380000  
C 14.8180000   12.5290000   19.8500000  
O 13.7830000   13.0920000   19.5020000  
O 19.0690000   17.2590000   23.4760000  
O 20.8590000   15.1110000   23.1110000  
H 17.7360000   11.6390000   20.6080000  
H 15.8560000   11.0600000   19.7590000  
H 15.2890000   15.1120000   20.7820000  
H 18.3070000   17.8650000   23.3840000  
H 21.3270000   14.2350000   23.0120000  
C 16.4760000   17.0990000   22.0280000  
C 15.9160000   17.6650000   23.2310000  
C 15.0820000   18.7000000   23.1200000  
C 14.6370000   19.3490000   21.9430000  
C 15.1570000   18.8360000   20.7420000  
C 16.0250000   17.6980000   20.7510000  
C 16.0780000   17.4090000   24.6060000  
C 15.1760000   18.3540000   25.2500000  
N 14.6100000   19.1880000   24.3230000  
O 15.3150000   17.2920000   27.3530000  
C 14.7490000   18.2660000   26.6310000  
O 13.9210000   18.9670000   27.1080000  
O 14.7930000   19.4980000   19.6120000  
O 16.3760000   17.2450000   19.4600000  
H 16.4140000   16.4930000   24.9980000  
H 15.9330000   17.1240000   26.7050000  
H 13.9030000   19.8780000   24.4970000  
H 14.6190000   20.3530000   19.9970000  
H 16.0500000   17.8880000   18.7810000  
C 13.6610000   20.4420000   21.9760000  
C 14.0300000   21.7260000   21.5050000  
C 13.0580000   22.7380000   21.5130000  
C 11.7120000   22.5040000   21.7280000  
C 11.3050000   21.1830000   22.1070000  
C 12.2570000   20.2070000   22.2170000  
C 15.2640000   22.3230000   21.1660000  
C 14.9300000   23.6510000   20.8720000  
N 13.6060000   23.9780000   21.1620000  
O 17.0790000   24.2690000   20.1540000  
C 15.8580000   24.6770000   20.2860000  
O 15.5230000   25.7960000   20.0470000  
O 10.0360000   20.8760000   22.4140000  
O 11.8440000   18.9350000   22.4720000  
H 16.1680000   21.7820000   20.9980000  
H 17.1780000   23.3440000   20.4440000  
H 13.2190000   24.8750000   21.1670000  
H  9.8390000   19.9510000   22.6800000  
H 12.5670000   18.4180000   22.9260000  
H 10.9890000   23.2210000   21.6720000  
