76
111 
C 12.1030000   20.7520000   17.7730000  
C 10.7360000   20.5260000   18.4190000  
C 10.5370000   19.7070000   19.4310000  
C 11.5490000   18.9450000   19.9590000  
C 12.9210000   19.0630000   19.4760000  
C 13.1610000   19.9840000   18.4090000  
C  9.3130000   19.2950000   20.0800000  
C  9.7440000   18.3340000   21.0410000  
N 11.0880000   18.1580000   20.9440000  
O  7.5890000   17.9850000   21.9910000  
C  8.8360000   17.5180000   21.8810000  
O  9.2300000   16.5350000   22.4880000  
O 14.4160000   20.1710000   17.9490000  
O 12.3430000   21.5290000   16.8530000  
H  9.9110000   20.9420000   17.7970000  
H  8.3230000   19.6340000   19.8500000  
H  7.5740000   18.7900000   21.4040000  
H 15.0300000   19.6220000   18.3430000  
C 13.9790000   18.4030000   20.2220000  
C 14.7630000   17.4870000   19.5600000  
C 15.7270000   16.7940000   20.2290000  
C 16.0920000   16.9150000   21.6010000  
C 15.2910000   17.8540000   22.3300000  
C 14.1980000   18.5350000   21.6520000  
C 14.8080000   16.9650000   18.1720000  
C 15.8170000   15.9880000   18.0700000  
N 16.3890000   15.9160000   19.3360000  
O 15.5670000   15.4230000   15.8430000  
C 16.3280000   15.2140000   16.9250000  
O 17.3030000   14.4850000   16.9490000  
O 15.5800000   18.0720000   23.6460000  
O 13.4270000   19.3430000   22.4880000  
H 14.1230000   17.2290000   17.4050000  
H 14.8770000   16.0420000   16.0690000  
H 17.0630000   15.1480000   19.5920000  
H 16.3510000   17.5800000   24.0420000  
H 12.6880000   19.6570000   21.9560000  
C 17.2280000   16.1970000   22.2750000  
C 18.5430000   16.4780000   21.8160000  
C 19.6150000   15.7320000   22.2190000  
C 19.5710000   14.8040000   23.2480000  
C 18.2400000   14.5720000   23.7840000  
C 17.1070000   15.2550000   23.3420000  
C 19.1390000   17.4830000   20.9170000  
C 20.4740000   17.2760000   20.8710000  
N 20.7910000   16.2600000   21.7930000  
O 20.9370000   19.0060000   19.2550000  
C 21.5340000   18.0220000   20.0520000  
O 22.7360000   17.8080000   19.9890000  
O 18.1760000   13.5540000   24.7290000  
O 15.8220000   15.0840000   23.8590000  
H 18.6320000   18.1960000   20.2330000  
H 20.0210000   19.0150000   19.5250000  
H 21.7040000   15.8970000   22.0370000  
H 19.0830000   13.4860000   24.9710000  
H 15.9890000   14.4460000   24.5330000  
C 20.8170000   14.1730000   23.7770000  
C 21.5940000   14.7850000   24.7810000  
C 22.6350000   14.2390000   25.3270000  
C 23.1020000   12.9520000   24.9820000  
C 22.3760000   12.2570000   23.9400000  
C 21.2320000   12.8530000   23.3040000  
C 21.3030000   16.0330000   25.4510000  
C 22.1500000   16.0910000   26.5120000  
N 23.0900000   15.0510000   26.3230000  
O 21.0700000   17.7590000   27.7150000  
C 22.0870000   16.9300000   27.7150000  
O 22.7990000   16.7880000   28.7230000  
O 22.8490000   11.1080000   23.3170000  
O 20.5000000   12.1280000   22.3960000  
H 20.4860000   16.7180000   25.2590000  
H 20.5410000   17.6200000   26.9070000  
H 23.9230000   14.8870000   26.8900000  
H 22.3360000   11.0510000   22.5030000  
H 19.8700000   12.7770000   21.9650000  
H 24.0440000   12.6090000   25.4400000  
