76
111 
C 21.3000000   11.2180000   18.6970000  
C 21.5050000   10.2460000   19.7750000  
C 20.8510000   10.3980000   20.9790000  
C 19.9290000   11.4200000   21.2310000  
C 19.7800000   12.5040000   20.2450000  
C 20.4110000   12.3590000   19.0190000  
C 20.6940000    9.5240000   22.0540000  
C 19.8610000   10.2000000   22.9500000  
N 19.3590000   11.4220000   22.4340000  
O 19.9890000    8.4510000   24.6580000  
C 19.3930000    9.5960000   24.2130000  
O 18.5660000   10.1430000   24.9280000  
O 20.4030000   13.4060000   18.1130000  
O 21.7660000   11.0510000   17.5930000  
H 22.1840000    9.4410000   19.4780000  
H 21.0700000    8.4660000   21.9630000  
H 20.7010000    8.2580000   24.0640000  
H 19.9970000   14.1360000   18.5280000  
C 18.9320000   13.6810000   20.6510000  
C 19.4940000   14.9600000   20.9210000  
C 18.6940000   15.9740000   21.2630000  
C 17.3280000   15.9770000   21.4780000  
C 16.7230000   14.7420000   21.2310000  
C 17.5300000   13.5990000   20.7150000  
C 20.8640000   15.3710000   21.0310000  
C 20.8180000   16.7120000   21.3360000  
N 19.5030000   17.0560000   21.5620000  
O 23.1740000   17.0120000   21.2820000  
C 22.0130000   17.5710000   21.5360000  
O 21.8740000   18.7770000   21.7350000  
O 15.3890000   14.6640000   21.3210000  
O 16.8920000   12.4490000   20.3030000  
H 21.7370000   14.6920000   20.7540000  
H 22.9890000   16.1240000   21.2930000  
H 19.2050000   17.8770000   22.0550000  
H 15.1090000   15.5720000   21.6440000  
H 15.9310000   12.5370000   20.2070000  
C 16.5310000   17.2330000   21.8270000  
C 15.4540000   17.6810000   21.0290000  
C 14.8220000   18.8540000   21.2710000  
C 15.0640000   19.7030000   22.3410000  
C 16.0090000   19.2620000   23.2450000  
C 16.7730000   18.0270000   22.9520000  
C 15.1210000   17.2500000   19.6770000  
C 14.2070000   18.1670000   19.2260000  
N 14.1410000   19.2310000   20.1300000  
O 13.7130000   17.1120000   17.2200000  
C 13.3630000   18.1450000   17.9400000  
O 12.6550000   19.0230000   17.5640000  
O 16.3110000   20.0560000   24.3310000  
O 17.6790000   17.6990000   23.8940000  
H 15.2580000   16.2490000   19.2810000  
H 14.3340000   16.6750000   17.8040000  
H 13.5090000   20.0190000   20.0480000  
H 15.9280000   20.9610000   24.1380000  
H 17.7410000   18.4080000   24.5920000  
C 14.5140000   21.0730000   22.5070000  
C 13.4780000   21.3010000   23.4010000  
C 12.9870000   22.5760000   23.5900000  
C 13.4800000   23.7030000   22.9690000  
C 14.5240000   23.5170000   22.1130000  
C 15.0080000   22.2290000   21.7470000  
C 12.7860000   20.3970000   24.2690000  
C 11.8680000   21.1260000   24.9450000  
N 11.9630000   22.4900000   24.5340000  
O 10.6500000   19.4210000   26.0580000  
C 10.7880000   20.7650000   25.8030000  
O 10.0130000   21.5660000   26.3330000  
O 15.1140000   24.5840000   21.5050000  
O 15.9490000   22.0560000   20.7290000  
H 13.1210000   19.3750000   24.5880000  
H 11.2530000   19.0530000   25.4050000  
H 11.3120000   23.2040000   24.7160000  
H 15.7920000   24.1710000   20.9170000  
H 15.9800000   21.1350000   20.5450000  
H 13.2850000   24.6740000   23.3510000  
