76
111 
C 11.8380000   22.0140000   23.2910000  
C 10.5610000   21.2750000   23.4010000  
C 10.4790000   19.9100000   23.2570000  
C 11.6040000   19.1770000   22.7830000  
C 12.8970000   19.7940000   22.6910000  
C 13.0130000   21.0990000   22.9290000  
C  9.4540000   18.9880000   23.4180000  
C 10.0060000   17.7470000   23.1050000  
N 11.3750000   17.8650000   22.8220000  
O  7.9610000   16.7020000   23.6610000  
C  9.2240000   16.5040000   23.2650000  
O  9.6590000   15.3600000   23.2230000  
O 14.1780000   21.6950000   22.9470000  
O 11.9970000   23.2060000   23.5380000  
H  9.8050000   22.0270000   23.6430000  
H  8.4730000   19.2360000   23.7950000  
H  7.9000000   17.6590000   23.6880000  
H 14.8780000   21.0120000   22.9350000  
C 14.1040000   18.9940000   22.5470000  
C 14.4310000   18.5610000   21.2850000  
C 15.5650000   17.7660000   21.1230000  
C 16.4080000   17.2350000   22.2220000  
C 15.9650000   17.6830000   23.5140000  
C 14.8380000   18.4730000   23.6520000  
C 13.9160000   18.7530000   20.0020000  
C 14.6270000   17.9070000   19.1090000  
N 15.6970000   17.2970000   19.8320000  
O 13.3290000   18.3330000   17.0650000  
C 14.4180000   17.6460000   17.6060000  
O 15.0660000   16.9200000   16.9130000  
O 16.5950000   17.2230000   24.6350000  
O 14.3710000   18.6620000   24.9110000  
H 13.0460000   19.3010000   19.7380000  
H 12.9950000   19.0010000   17.7450000  
H 16.3520000   16.6180000   19.5010000  
H 17.4300000   17.0640000   24.2740000  
H 13.4460000   19.0040000   24.8050000  
C 17.5820000   16.3120000   21.9830000  
C 18.6640000   16.7910000   21.1990000  
C 19.7260000   15.9570000   20.8280000  
C 19.6670000   14.5440000   21.0090000  
C 18.5360000   14.0800000   21.7380000  
C 17.5480000   14.9010000   22.1950000  
C 19.0390000   18.1880000   20.8270000  
C 20.2100000   18.0680000   20.1310000  
N 20.6850000   16.7040000   20.1870000  
O 20.3580000   20.3680000   19.5030000  
C 20.9130000   19.1480000   19.4260000  
O 21.9580000   18.9500000   18.8670000  
O 18.4780000   12.7450000   22.0950000  
O 16.6960000   14.2900000   22.9570000  
H 18.3800000   18.9890000   20.8670000  
H 19.6500000   20.1990000   20.1760000  
H 21.5600000   16.3480000   19.8240000  
H 19.0750000   12.2160000   21.4910000  
H 17.1250000   13.4710000   23.2800000  
C 20.8530000   13.6030000   20.7390000  
C 21.7990000   13.3890000   21.7560000  
C 22.8140000   12.5140000   21.6060000  
C 22.9910000   11.8790000   20.3430000  
C 22.1290000   12.0520000   19.3030000  
C 21.0470000   12.9380000   19.4600000  
C 21.9360000   14.0360000   23.0030000  
C 22.9530000   13.3700000   23.6720000  
N 23.5470000   12.4480000   22.7710000  
O 22.5850000   14.7340000   25.5250000  
C 23.2930000   13.7410000   24.9950000  
O 24.2110000   13.2410000   25.6080000  
O 22.4680000   11.6700000   18.0290000  
O 20.1740000   13.2120000   18.4530000  
H 21.1210000   14.5600000   23.5080000  
H 22.0410000   14.9350000   24.7440000  
H 24.2560000   11.7530000   22.9590000  
H 21.9450000   12.2660000   17.4010000  
H 19.3500000   13.4310000   18.8440000  
H 23.8560000   11.2600000   20.1830000  
