76
111 
C 19.2720000   14.3580000   28.2440000  
C 18.2580000   14.6420000   29.3450000  
C 17.0470000   15.0890000   28.9960000  
C 16.5870000   15.4050000   27.7120000  
C 17.4870000   15.1690000   26.5860000  
C 18.7110000   14.6180000   26.8680000  
C 15.9640000   15.4180000   29.7990000  
C 14.9640000   15.9620000   29.0500000  
N 15.3720000   15.9620000   27.7160000  
O 13.5120000   16.3120000   30.9270000  
C 13.6900000   16.5050000   29.5810000  
O 12.8130000   17.0470000   28.9530000  
O 19.4580000   14.2740000   25.7680000  
O 20.3950000   13.9730000   28.5240000  
H 18.5050000   14.4320000   30.3710000  
H 15.9730000   15.3880000   30.9310000  
H 14.2510000   15.7820000   31.1450000  
H 18.7910000   14.2760000   25.0330000  
C 17.0210000   15.5030000   25.3050000  
C 17.3300000   16.7400000   24.7000000  
C 17.0110000   17.0170000   23.4060000  
C 16.5690000   16.0130000   22.5030000  
C 16.3980000   14.6840000   23.0410000  
C 16.5390000   14.4930000   24.4360000  
C 17.8820000   18.0260000   25.2040000  
C 17.7060000   19.0170000   24.1810000  
N 17.1870000   18.3190000   23.0620000  
O 18.7250000   20.8250000   25.2280000  
C 18.0950000   20.3940000   24.1290000  
O 17.8410000   21.2250000   23.2370000  
O 15.9960000   13.6390000   22.1900000  
O 16.3690000   13.2040000   24.9500000  
H 18.3590000   18.0980000   26.1770000  
H 18.4680000   20.1300000   25.8450000  
H 16.9180000   18.6950000   22.1700000  
H 16.0120000   13.9050000   21.2480000  
H 16.7820000   13.1980000   25.8100000  
C 16.2260000   16.3450000   21.1190000  
C 17.2580000   16.7730000   20.2370000  
C 17.0480000   17.1090000   18.9440000  
C 15.7460000   17.1800000   18.3000000  
C 14.7590000   16.5500000   19.0860000  
C 15.0140000   16.2460000   20.4800000  
C 18.7240000   16.8970000   20.4260000  
C 19.1530000   17.5570000   19.2960000  
N 18.1360000   17.6980000   18.3760000  
O 21.2810000   17.3110000   20.0690000  
C 20.5870000   17.8240000   19.0510000  
O 21.0590000   18.3270000   18.0710000  
O 13.5890000   16.2340000   18.4550000  
O 13.9610000   15.6500000   21.1550000  
H 19.2920000   16.6820000   21.3400000  
H 20.6700000   16.9730000   20.7260000  
H 18.2810000   17.9750000   17.4650000  
H 13.5410000   16.7370000   17.6410000  
H 13.1420000   15.8650000   20.7950000  
C 15.5180000   17.6260000   16.8940000  
C 16.3390000   17.0970000   15.7940000  
C 16.1460000   17.6340000   14.5000000  
C 15.1720000   18.5690000   14.2600000  
C 14.3740000   19.1230000   15.3180000  
C 14.6150000   18.7000000   16.6130000  
C 17.4330000   16.1530000   15.6740000  
C 17.8820000   16.2070000   14.3620000  
N 16.9300000   16.9700000   13.5760000  
O 19.9710000   15.2370000   14.9040000  
C 19.1540000   15.5820000   13.8800000  
O 19.4440000   15.4760000   12.6780000  
O 13.4650000   20.0560000   15.0560000  
O 13.8880000   19.3070000   17.6310000  
H 18.0540000   15.7480000   16.4080000  
H 19.4600000   15.2530000   15.6810000  
H 17.0950000   17.1930000   12.6420000  
H 13.2270000   20.5130000   15.9470000  
H 13.9060000   18.7820000   18.4480000  
H 15.0020000   18.9260000   13.2170000  
