76
111 
C 18.1270000   12.0850000   27.3660000  
C 19.5180000   12.2090000   27.7750000  
C 20.4720000   12.9680000   27.0840000  
C 20.1020000   13.8510000   26.0400000  
C 18.7000000   13.8880000   25.6200000  
C 17.7460000   13.0890000   26.2760000  
C 21.8620000   13.0490000   27.2080000  
C 22.2870000   13.9400000   26.2030000  
N 21.1700000   14.4370000   25.4580000  
O 24.5750000   13.6270000   26.6360000  
C 23.6780000   14.2710000   25.8650000  
O 24.0470000   15.0600000   25.0100000  
O 16.4090000   13.1980000   25.9950000  
O 17.3720000   11.2580000   27.8970000  
H 19.7120000   11.5270000   28.6180000  
H 22.4340000   12.5070000   27.9150000  
H 24.1480000   12.8940000   27.0630000  
H 16.3270000   14.0930000   25.6410000  
C 18.2710000   14.7490000   24.4900000  
C 18.3560000   14.1530000   23.1890000  
C 17.8760000   14.9010000   22.1500000  
C 17.3410000   16.2540000   22.2070000  
C 17.5000000   16.8250000   23.4770000  
C 17.9390000   16.0850000   24.6160000  
C 18.4440000   12.7700000   22.7720000  
C 18.0440000   12.7830000   21.4180000  
N 17.7370000   14.0710000   21.0190000  
O 17.8200000   10.3200000   21.1840000  
C 17.7330000   11.5250000   20.6190000  
O 17.3150000   11.6670000   19.4870000  
O 17.4310000   18.1740000   23.6560000  
O 17.8890000   16.6990000   25.8920000  
H 18.7810000   11.8950000   23.3630000  
H 18.5400000   10.4170000   21.8980000  
H 17.3490000   14.1530000   20.1080000  
H 17.0270000   18.6600000   22.9240000  
H 18.2240000   16.0710000   26.5570000  
C 16.7140000   16.9390000   21.0510000  
C 15.5300000   17.7000000   21.2330000  
C 14.9610000   18.3370000   20.2260000  
C 15.4450000   18.4190000   18.9210000  
C 16.6860000   17.7180000   18.6780000  
C 17.3450000   17.0380000   19.7440000  
C 14.5470000   17.7900000   22.3630000  
C 13.5300000   18.6620000   21.9420000  
N 13.7880000   18.9460000   20.6410000  
O 12.2290000   18.9160000   23.9640000  
C 12.4620000   19.3770000   22.7090000  
O 11.8350000   20.2860000   22.1470000  
O 17.2940000   17.6830000   17.4490000  
O 18.5870000   16.5050000   19.5690000  
H 14.6830000   17.5230000   23.3600000  
H 12.7470000   18.0890000   24.0090000  
H 13.2160000   19.5870000   20.0800000  
H 16.8560000   18.3270000   16.8430000  
H 18.6860000   16.5530000   18.6510000  
C 14.6150000   19.0580000   17.8120000  
C 14.6090000   20.4270000   17.6390000  
C 14.0810000   21.0400000   16.5650000  
C 13.3660000   20.3700000   15.5980000  
C 13.1860000   18.9960000   15.7700000  
C 13.9560000   18.3380000   16.7900000  
C 15.2750000   21.4760000   18.4880000  
C 15.0760000   22.6640000   17.8350000  
N 14.3440000   22.3980000   16.6170000  
O 15.7990000   24.1110000   19.5980000  
C 15.2970000   24.0170000   18.3660000  
O 14.9090000   24.9720000   17.7190000  
O 12.5780000   18.2450000   14.8270000  
O 14.0520000   16.9320000   16.7440000  
H 15.7250000   21.2410000   19.4530000  
H 15.8930000   23.2010000   19.9530000  
H 13.7950000   23.0810000   16.0810000  
H 12.5700000   17.3140000   15.0990000  
H 14.3960000   16.6960000   17.5850000  
H 12.8800000   20.7800000   14.7190000  
