76
111 
C 14.5930000   17.2810000   29.1070000  
C 15.8380000   16.8730000   29.8050000  
C 16.9930000   16.6140000   29.0710000  
C 17.1470000   16.7790000   27.7160000  
C 15.9610000   17.1310000   26.9090000  
C 14.7580000   17.4080000   27.6030000  
C 18.3000000   16.2780000   29.4980000  
C 19.0970000   16.1860000   28.3920000  
N 18.3800000   16.5440000   27.2670000  
O 21.0340000   15.3510000   29.5940000  
C 20.5100000   15.7300000   28.3750000  
O 21.1680000   15.6170000   27.3490000  
O 13.6210000   17.7590000   26.9080000  
O 13.4680000   17.4780000   29.6750000  
H 15.7050000   16.7430000   30.8870000  
H 18.6490000   16.1830000   30.4820000  
H 20.2230000   15.5690000   30.1160000  
H 13.9300000   17.7170000   26.0040000  
C 16.0100000   17.3180000   25.4800000  
C 15.4990000   16.4010000   24.5580000  
C 15.6480000   16.4800000   23.2020000  
C 16.4440000   17.5110000   22.6000000  
C 16.8550000   18.5540000   23.5040000  
C 16.5950000   18.4690000   24.9370000  
C 14.9170000   15.1560000   24.8230000  
C 14.7270000   14.5150000   23.5960000  
N 15.3230000   15.3320000   22.5760000  
O 13.9110000   12.5420000   24.5330000  
C 14.1830000   13.1670000   23.4140000  
O 13.9310000   12.7450000   22.3020000  
O 17.5570000   19.5980000   23.0400000  
O 17.0920000   19.5060000   25.6810000  
H 14.7250000   14.6730000   25.8170000  
H 14.1380000   13.1710000   25.2170000  
H 15.5320000   15.1130000   21.6640000  
H 17.7790000   19.3300000   22.1260000  
H 17.3170000   20.2390000   25.0470000  
C 17.0000000   17.3890000   21.1880000  
C 16.1110000   17.3260000   20.0870000  
C 16.6660000   16.9870000   18.8270000  
C 18.0400000   16.7030000   18.5730000  
C 18.8930000   16.9200000   19.6210000  
C 18.3850000   17.1060000   20.9110000  
C 14.6540000   17.3510000   19.9560000  
C 14.4080000   17.0480000   18.6300000  
N 15.6370000   16.9110000   17.8790000  
O 12.0590000   16.9300000   18.8880000  
C 13.0960000   16.8440000   18.0070000  
O 12.8310000   16.7380000   16.8140000  
O 20.2700000   16.7640000   19.5450000  
O 19.2230000   16.9830000   22.0250000  
H 13.8780000   17.5580000   20.6380000  
H 12.5090000   17.1090000   19.7590000  
H 15.7160000   16.7090000   16.8900000  
H 20.4980000   16.7840000   18.5910000  
H 20.1320000   17.2040000   21.7550000  
C 18.4660000   16.2130000   17.2160000  
C 18.3960000   17.0360000   16.0970000  
C 18.9480000   16.6590000   14.9120000  
C 19.5480000   15.3880000   14.6610000  
C 19.4140000   14.4860000   15.7160000  
C 18.9400000   14.9120000   16.9840000  
C 17.8770000   18.3610000   15.9310000  
C 18.1040000   18.7400000   14.6120000  
N 18.7640000   17.6720000   13.9610000  
O 16.9970000   20.9220000   14.8610000  
C 17.6360000   20.0260000   14.0340000  
O 18.0750000   20.3380000   12.9830000  
O 19.9250000   13.2280000   15.6040000  
O 19.0050000   14.0090000   17.9680000  
H 17.3750000   19.0030000   16.6700000  
H 16.9520000   20.4990000   15.6810000  
H 19.0900000   17.6500000   13.0040000  
H 19.8330000   12.7510000   16.3950000  
H 18.9610000   14.4220000   18.8410000  
H 19.8620000   14.9600000   13.7320000  
