76
110 
C 22.1650000   10.6870000   21.4180000  
C 21.7170000    9.7400000   22.4590000  
C 20.4690000    9.9560000   22.9770000  
C 19.6220000   11.0540000   22.7540000  
C 19.9840000   11.9880000   21.7790000  
C 21.2070000   11.7890000   21.1140000  
C 19.8350000    9.2950000   24.1010000  
C 18.6260000   10.0040000   24.3230000  
N 18.4890000   11.1010000   23.4480000  
O 17.8740000    8.6050000   26.0920000  
C 17.6060000    9.6490000   25.2930000  
O 16.5480000   10.1790000   25.3080000  
O 21.7250000   12.7050000   20.2350000  
O 23.2380000   10.4970000   20.8690000  
H 22.3880000    8.9190000   22.7510000  
H 20.1700000    8.3430000   24.5360000  
H 18.7980000    8.3100000   25.9000000  
H 21.1210000   13.4160000   20.0920000  
C 19.2030000   13.2240000   21.5850000  
C 19.5750000   14.3740000   22.3350000  
C 18.8610000   15.5200000   22.2470000  
C 17.6370000   15.6740000   21.5510000  
C 17.3250000   14.5660000   20.7090000  
C 18.0630000   13.3400000   20.7770000  
C 20.6970000   14.6370000   23.2150000  
C 20.3720000   15.8770000   23.7710000  
N 19.3910000   16.5250000   23.0440000  
O 22.1010000   15.9920000   25.4140000  
C 20.9980000   16.5540000   24.9380000  
O 20.5650000   17.5390000   25.4720000  
O 16.2100000   14.6630000   19.9220000  
O 17.7510000   12.2800000   19.9660000  
H 21.4140000   13.9470000   23.5940000  
H 22.1550000   15.1730000   24.8420000  
H 18.9370000   17.2470000   23.5000000  
H 16.4990000   14.1320000   19.1490000  
H 18.4360000   11.5290000   20.0890000  
C 16.8890000   16.9780000   21.6770000  
C 16.8030000   17.8330000   20.5940000  
C 16.1830000   19.0720000   20.7180000  
C 15.4950000   19.5210000   21.8650000  
C 15.4960000   18.6460000   22.9880000  
C 16.1610000   17.3120000   22.8950000  
C 17.4400000   17.8080000   19.3530000  
C 17.1500000   19.0400000   18.7510000  
N 16.4130000   19.8280000   19.6270000  
O 18.4020000   18.6170000   16.7460000  
C 17.6250000   19.5070000   17.4220000  
O 17.4390000   20.6230000   16.8890000  
O 14.9380000   18.9740000   24.1800000  
O 16.1130000   16.4010000   23.9830000  
H 17.9600000   16.9940000   18.8220000  
H 18.6920000   17.9680000   17.4520000  
H 16.1110000   20.8190000   19.5710000  
H 14.8580000   19.9200000   24.4530000  
H 16.4630000   15.4990000   23.6810000  
C 14.7290000   20.7660000   21.9230000  
C 13.7610000   21.0430000   20.9290000  
C 13.0150000   22.2160000   21.0200000  
C 13.2480000   23.2270000   21.9960000  
C 14.3240000   23.0480000   22.8740000  
C 15.0150000   21.7690000   22.8690000  
C 13.1850000   20.2530000   19.8600000  
C 12.1950000   21.0160000   19.3220000  
N 12.0290000   22.1810000   20.1140000  
O 11.7070000   19.6170000   17.5040000  
C 11.3800000   20.7140000   18.1330000  
O 10.5510000   21.4950000   17.7080000  
O 14.6670000   23.9840000   23.7600000  
O 16.0470000   21.5790000   23.7860000  
H 13.3820000   19.2820000   19.4820000  
H 12.2550000   19.1860000   18.1380000  
H 11.4060000   22.9080000   19.8230000  
H 15.3270000   23.6570000   24.3840000  
H 16.7490000   21.0110000   23.4190000  
H 12.6900000   24.1490000   22.0240000  
