76
111 
C 15.2660000   19.5590000   28.4840000  
C 13.9710000   18.9710000   28.8650000  
C 13.3600000   18.2070000   27.9470000  
C 13.8410000   17.9060000   26.6780000  
C 15.0830000   18.4980000   26.2390000  
C 15.8000000   19.2980000   27.1280000  
C 12.2090000   17.4550000   28.1840000  
C 12.1090000   16.7070000   27.0030000  
N 13.1060000   16.9940000   26.0560000  
O 10.2410000   15.5350000   27.8520000  
C 11.1020000   15.6770000   26.7630000  
O 11.0380000   15.1690000   25.6520000  
O 16.9320000   19.9810000   26.8990000  
O 15.8560000   20.3680000   29.2220000  
H 13.5400000   19.0730000   29.8650000  
H 11.5400000   17.4690000   29.0400000  
H 10.5240000   16.1780000   28.4680000  
H 17.4250000   19.7760000   26.1240000  
C 15.6550000   17.9760000   25.0270000  
C 15.2390000   18.3950000   23.7850000  
C 15.6620000   17.9000000   22.5890000  
C 16.5500000   16.8460000   22.4760000  
C 16.9520000   16.2900000   23.7180000  
C 16.5520000   16.8670000   24.9910000  
C 14.1920000   19.3410000   23.4830000  
C 14.1260000   19.4690000   22.0890000  
N 15.0220000   18.4910000   21.5180000  
O 12.5910000   21.2830000   22.0250000  
C 13.3230000   20.3820000   21.2430000  
O 13.3050000   20.3230000   20.0080000  
O 17.8900000   15.3380000   23.6970000  
O 16.9180000   16.3310000   26.2220000  
H 13.5250000   19.8130000   24.1950000  
H 12.7530000   21.0110000   22.9870000  
H 15.2340000   18.3580000   20.5590000  
H 18.1280000   15.2170000   22.7290000  
H 16.2730000   16.6240000   26.8560000  
C 17.0680000   16.3640000   21.1730000  
C 18.2550000   17.0010000   20.6410000  
C 18.6650000   16.7330000   19.3920000  
C 18.1570000   15.6570000   18.5930000  
C 16.9970000   15.0530000   19.0970000  
C 16.4670000   15.3640000   20.3870000  
C 19.2390000   17.9360000   21.2070000  
C 20.2050000   18.1380000   20.2340000  
N 19.9020000   17.3240000   19.1520000  
O 21.4910000   19.6240000   21.6180000  
C 21.4900000   18.8060000   20.5490000  
O 22.4350000   18.7430000   19.7020000  
O 16.5940000   13.9090000   18.4740000  
O 15.2670000   14.7470000   20.7020000  
H 19.1970000   18.2460000   22.2410000  
H 20.7020000   19.3330000   22.1250000  
H 20.4870000   17.1130000   18.3220000  
H 17.2230000   13.8110000   17.8150000  
H 15.0770000   14.1390000   19.9160000  
C 18.7690000   15.3990000   17.2260000  
C 19.5590000   14.2200000   17.1030000  
C 20.2900000   14.0540000   15.9480000  
C 20.2670000   14.9910000   14.9330000  
C 19.4410000   16.1100000   15.0500000  
C 18.7070000   16.3570000   16.2230000  
C 19.8260000   13.0580000   17.9590000  
C 20.7110000   12.2180000   17.1920000  
N 20.9170000   12.8860000   15.9990000  
O 20.8990000   10.3300000   18.6190000  
C 21.4370000   10.9200000   17.5240000  
O 22.3330000   10.4080000   16.8410000  
O 19.3930000   17.0390000   14.0050000  
O 17.9670000   17.5020000   16.3390000  
H 19.4570000   12.8210000   18.9500000  
H 20.2400000   10.9650000   18.8570000  
H 21.5520000   12.5550000   15.3590000  
H 19.2410000   17.8870000   14.5280000  
H 17.7340000   17.5700000   17.2480000  
H 20.8570000   14.8590000   14.0600000  
