76
111 
C 10.1580000   18.7620000   21.8510000  
C  9.7790000   19.6850000   22.9080000  
C 10.7150000   20.2740000   23.6070000  
C 12.0640000   19.9550000   23.4650000  
C 12.5130000   19.0270000   22.4860000  
C 11.5830000   18.4620000   21.6700000  
C 10.6280000   21.1180000   24.7580000  
C 11.9390000   21.2740000   25.1700000  
N 12.8430000   20.4680000   24.4060000  
O 11.4580000   22.9190000   26.8570000  
C 12.3990000   22.2050000   26.2790000  
O 13.5490000   22.3310000   26.6880000  
O 11.8240000   17.5460000   20.7350000  
O  9.3090000   18.3530000   21.0550000  
H  8.7190000   20.0110000   22.9860000  
H  9.7550000   21.6140000   25.2050000  
H 10.7060000   22.8970000   26.2380000  
H 12.7460000   17.2910000   20.8580000  
C 13.9080000   18.5700000   22.3040000  
C 14.5940000   17.8970000   23.3290000  
C 15.8950000   17.4180000   23.1600000  
C 16.6590000   17.5650000   22.0360000  
C 16.0750000   18.3290000   20.9990000  
C 14.7770000   18.8820000   21.1690000  
C 14.1820000   17.2960000   24.5330000  
C 15.2230000   16.5780000   25.1770000  
N 16.2720000   16.5800000   24.2150000  
O 14.0630000   16.1310000   27.2510000  
C 15.1950000   15.9950000   26.5570000  
O 16.0470000   15.2540000   27.0090000  
O 16.7710000   18.4770000   19.8820000  
O 14.2640000   19.4390000   20.0510000  
H 13.1760000   17.3880000   25.0110000  
H 13.6720000   16.9450000   26.9140000  
H 17.1690000   16.1690000   24.3920000  
H 17.6940000   18.1230000   20.1810000  
H 15.0590000   19.7490000   19.5340000  
C 17.9490000   16.8090000   21.8270000  
C 17.8550000   15.4120000   21.5270000  
C 18.9450000   14.7050000   21.1380000  
C 20.2620000   15.2210000   20.9210000  
C 20.3710000   16.6400000   21.1890000  
C 19.2720000   17.3910000   21.6590000  
C 16.6820000   14.5430000   21.4270000  
C 17.1850000   13.3190000   21.0940000  
N 18.5860000   13.4010000   20.8750000  
O 15.1220000   12.2430000   21.2960000  
C 16.4050000   12.0830000   20.8820000  
O 16.9400000   11.0520000   20.4590000  
O 21.6460000   17.1720000   21.2290000  
O 19.4730000   18.7240000   22.0020000  
H 15.6140000   14.8190000   21.6680000  
H 15.1660000   13.1100000   21.7980000  
H 19.2340000   12.6570000   20.6350000  
H 22.2060000   16.4960000   20.7350000  
H 20.4200000   18.9830000   21.9820000  
C 21.3650000   14.4210000   20.3010000  
C 21.8660000   14.6160000   18.9850000  
C 22.8690000   13.7820000   18.3830000  
C 23.6050000   12.8490000   19.1360000  
C 23.2260000   12.6700000   20.4690000  
C 22.1380000   13.3870000   21.0240000  
C 21.5730000   15.6050000   18.0010000  
C 22.2730000   15.3260000   16.8360000  
N 22.9800000   14.1050000   17.0480000  
O 21.4770000   17.1320000   15.5320000  
C 22.2690000   16.0680000   15.5700000  
O 22.9910000   15.7200000   14.6730000  
O 23.9600000   11.8370000   21.2240000  
O 21.9950000   13.3570000   22.4260000  
H 21.0190000   16.5080000   18.1440000  
H 20.8120000   17.0290000   16.1600000  
H 23.6620000   13.6490000   16.4480000  
H 23.5310000   11.7740000   22.1590000  
H 21.5670000   14.1930000   22.7400000  
H 24.3860000   12.2820000   18.6400000  
