76
111 
C 15.2760000   14.8370000   28.8350000  
C 16.3350000   15.4060000   29.7220000  
C 17.3540000   16.0770000   29.0840000  
C 17.3730000   16.3190000   27.7070000  
C 16.3750000   15.7380000   26.8080000  
C 15.3960000   14.9560000   27.3620000  
C 18.4570000   16.8540000   29.5980000  
C 19.1050000   17.3430000   28.4540000  
N 18.3980000   17.0450000   27.2910000  
O 21.1790000   17.8580000   29.5110000  
C 20.4540000   17.8530000   28.4450000  
O 20.9340000   18.4060000   27.4660000  
O 14.4690000   14.2790000   26.5840000  
O 14.2640000   14.4030000   29.3990000  
H 16.2420000   15.3010000   30.8300000  
H 18.7840000   16.8780000   30.6560000  
H 20.8510000   17.1360000   30.0610000  
H 15.0070000   14.0930000   25.7530000  
C 16.3110000   16.1010000   25.3970000  
C 16.7430000   15.1220000   24.4780000  
C 16.8620000   15.3760000   23.1500000  
C 16.4260000   16.6010000   22.5670000  
C 15.9260000   17.6130000   23.4820000  
C 15.9220000   17.3630000   24.9380000  
C 17.2970000   13.7630000   24.6720000  
C 17.7070000   13.3270000   23.4270000  
N 17.4600000   14.2830000   22.4990000  
O 18.9070000   11.3090000   24.1680000  
C 18.5620000   12.1470000   23.0890000  
O 18.9010000   11.9620000   21.9440000  
O 15.4130000   18.8080000   22.9490000  
O 15.6300000   18.3000000   25.8970000  
H 17.5360000   13.2300000   25.4940000  
H 18.7420000   11.7230000   25.0690000  
H 17.7620000   14.0600000   21.5670000  
H 15.4820000   18.6790000   21.9630000  
H 16.0280000   17.9280000   26.7430000  
C 16.5610000   16.9120000   21.1280000  
C 15.6690000   16.4060000   20.1630000  
C 15.8660000   16.6110000   18.8240000  
C 16.8900000   17.3700000   18.2880000  
C 17.8860000   17.8230000   19.1980000  
C 17.6620000   17.5990000   20.5840000  
C 14.5070000   15.5420000   20.3050000  
C 14.0420000   15.3730000   19.0060000  
N 14.8820000   16.0620000   18.1130000  
O 12.2820000   13.9290000   19.4630000  
C 12.9540000   14.5990000   18.5260000  
O 12.6830000   14.5540000   17.3640000  
O 18.9980000   18.4850000   18.8150000  
O 18.5440000   18.0670000   21.5300000  
H 14.1540000   15.0220000   21.1460000  
H 12.8770000   14.1150000   20.1990000  
H 14.8120000   16.1260000   17.0740000  
H 18.9690000   18.4780000   17.7970000  
H 19.1240000   18.7400000   21.1360000  
C 17.0870000   17.5660000   16.8560000  
C 17.0810000   18.8490000   16.2290000  
C 17.5010000   18.9240000   14.8940000  
C 17.8800000   17.8450000   14.1280000  
C 17.9200000   16.6250000   14.7010000  
C 17.6030000   16.4850000   16.0490000  
C 16.8010000   20.1100000   16.7230000  
C 17.1360000   21.0050000   15.6360000  
N 17.5230000   20.2320000   14.5030000  
O 16.7760000   22.9810000   16.9850000  
C 17.0610000   22.4530000   15.7160000  
O 17.1720000   23.2040000   14.7390000  
O 18.3360000   15.5920000   13.9870000  
O 17.6340000   15.2360000   16.6080000  
H 16.4840000   20.3210000   17.7450000  
H 16.8840000   22.2480000   17.5710000  
H 17.8900000   20.6330000   13.6490000  
H 18.0640000   14.7850000   14.4930000  
H 17.5740000   15.2360000   17.5520000  
H 18.1450000   17.9950000   13.0930000  
