76
111 
C 10.8910000   15.9920000   17.6630000  
C 11.1770000   16.3090000   16.2450000  
C 12.4380000   16.6790000   15.9310000  
C 13.4860000   16.9210000   16.8020000  
C 13.2930000   16.7400000   18.2000000  
C 12.0330000   16.2530000   18.5620000  
C 12.8930000   17.0650000   14.6540000  
C 14.1820000   17.6530000   14.8750000  
N 14.4780000   17.6150000   16.2630000  
O 14.7410000   18.1170000   12.6380000  
C 15.1490000   18.2340000   13.8550000  
O 16.2600000   18.6210000   14.1330000  
O 11.8280000   15.9750000   19.8950000  
O  9.7560000   15.6750000   17.9710000  
H 10.4460000   16.1630000   15.4380000  
H 12.5000000   16.7400000   13.7080000  
H 13.9210000   17.6400000   12.7250000  
H 12.7550000   15.9770000   20.2250000  
C 14.4380000   16.8570000   19.1680000  
C 14.3450000   17.7490000   20.2300000  
C 15.2630000   17.8330000   21.2090000  
C 16.3950000   16.9790000   21.2480000  
C 16.6230000   16.2170000   20.1090000  
C 15.6470000   16.1320000   19.1250000  
C 13.4480000   18.8340000   20.4760000  
C 13.8910000   19.4280000   21.7100000  
N 15.0230000   18.7790000   22.1240000  
O 12.2790000   21.2210000   21.6720000  
C 13.1830000   20.4950000   22.4290000  
O 13.4570000   20.9320000   23.5470000  
O 17.7380000   15.4480000   20.0260000  
O 15.7870000   15.2750000   18.1370000  
H 12.5790000   19.0070000   19.9010000  
H 12.2740000   20.7780000   20.8060000  
H 15.4480000   19.0390000   22.9850000  
H 18.2390000   15.4810000   20.8490000  
H 16.7280000   14.9820000   18.2940000  
C 17.3680000   16.9860000   22.4210000  
C 17.1040000   16.3180000   23.5980000  
C 17.9790000   16.2690000   24.6070000  
C 19.2820000   16.8320000   24.5210000  
C 19.6410000   17.5150000   23.3710000  
C 18.6470000   17.6370000   22.3300000  
C 15.9780000   15.5950000   24.0380000  
C 16.2770000   15.0650000   25.3080000  
N 17.5720000   15.4940000   25.6680000  
O 14.1760000   13.9090000   25.6910000  
C 15.4600000   14.1170000   26.1400000  
O 15.8580000   13.4150000   27.0880000  
O 20.7690000   18.1750000   23.1420000  
O 18.9270000   18.2350000   21.1340000  
H 15.0570000   15.5490000   23.5420000  
H 14.0160000   14.7390000   25.2760000  
H 18.0350000   15.2530000   26.5260000  
H 21.4920000   17.6310000   23.4930000  
H 19.7130000   18.8210000   21.2730000  
C 20.3720000   16.5790000   25.5410000  
C 21.5550000   15.9940000   25.1660000  
C 22.5860000   15.9270000   26.0310000  
C 22.6200000   16.4340000   27.2940000  
C 21.4670000   17.1530000   27.6970000  
C 20.3460000   17.2770000   26.7860000  
C 21.9550000   15.1350000   24.0390000  
C 23.2120000   14.6020000   24.2980000  
N 23.5510000   15.0470000   25.5750000  
O 23.4420000   13.4500000   22.2100000  
C 24.0590000   13.7350000   23.4510000  
O 25.1190000   13.2720000   23.8090000  
O 21.4520000   17.7760000   28.9050000  
O 19.2430000   17.9020000   27.2250000  
H 21.4350000   15.0700000   23.0850000  
H 22.5460000   13.7560000   22.3270000  
H 24.4060000   14.8670000   26.0980000  
H 20.8640000   18.5590000   28.9150000  
H 18.6730000   17.9020000   26.4060000  
H 23.4490000   16.2070000   28.0030000  
