76
111 
C 15.8710000   18.2370000   28.9810000  
C 14.5020000   17.8790000   29.4760000  
C 13.6630000   17.3530000   28.5300000  
C 14.0350000   17.0650000   27.2220000  
C 15.3450000   17.4410000   26.6020000  
C 16.1870000   18.0920000   27.4840000  
C 12.2680000   17.0190000   28.5950000  
C 11.8710000   16.5740000   27.3610000  
N 12.9880000   16.7170000   26.5390000  
O  9.6140000   16.2350000   27.9720000  
C 10.4880000   16.1170000   26.9680000  
O 10.2510000   15.5380000   25.9170000  
O 17.4260000   18.5590000   27.1360000  
O 16.6540000   18.6340000   29.8290000  
H 14.2640000   17.9310000   30.5000000  
H 11.6860000   17.1970000   29.5160000  
H 10.1670000   16.6390000   28.6500000  
H 17.6100000   18.3110000   26.2220000  
C 15.5800000   17.2550000   25.2010000  
C 16.0920000   18.2730000   24.3720000  
C 16.4230000   18.0540000   23.1240000  
C 16.4900000   16.8660000   22.4120000  
C 15.9830000   15.7740000   23.2070000  
C 15.5750000   15.9630000   24.5800000  
C 16.2600000   19.6640000   24.5620000  
C 16.6890000   20.2390000   23.3560000  
N 16.9130000   19.1640000   22.4860000  
O 16.3420000   22.5220000   24.0940000  
C 16.8500000   21.6820000   23.0780000  
O 17.3030000   22.1010000   21.9920000  
O 15.8430000   14.5210000   22.6290000  
O 15.1070000   14.9260000   25.2960000  
H 15.9920000   20.2420000   25.3980000  
H 16.1330000   21.9790000   24.8930000  
H 17.1320000   19.2660000   21.4970000  
H 16.2120000   14.6730000   21.7750000  
H 14.8560000   14.1400000   24.7400000  
C 17.0750000   16.6980000   21.0700000  
C 18.1400000   15.7420000   20.7930000  
C 18.8190000   15.7340000   19.5850000  
C 18.5150000   16.6440000   18.5310000  
C 17.4650000   17.5600000   18.7310000  
C 16.7740000   17.5960000   19.9520000  
C 18.8840000   14.8370000   21.6400000  
C 20.0700000   14.3790000   20.8370000  
N 20.0040000   15.0910000   19.6690000  
O 20.8480000   12.8680000   22.4160000  
C 21.0930000   13.4070000   21.2470000  
O 22.0870000   13.1160000   20.6050000  
O 17.1360000   18.4340000   17.7650000  
O 15.7920000   18.4830000   20.0870000  
H 18.5890000   14.5910000   22.6410000  
H 19.9590000   13.1510000   22.6170000  
H 20.6720000   15.0900000   18.9280000  
H 17.6710000   18.3680000   16.9440000  
H 15.5020000   18.8480000   19.2490000  
C 19.2110000   16.5570000   17.2020000  
C 18.6710000   15.7600000   16.1070000  
C 19.3590000   15.6370000   14.9030000  
C 20.5440000   16.3460000   14.7040000  
C 21.0810000   17.1040000   15.7360000  
C 20.4750000   17.1170000   17.0180000  
C 17.6400000   14.7510000   16.0120000  
C 17.6000000   14.2830000   14.7200000  
N 18.7460000   14.7540000   14.0430000  
O 15.7030000   12.8830000   15.0950000  
C 16.6150000   13.2870000   14.1740000  
O 16.5870000   12.9290000   12.9670000  
O 22.2170000   17.8080000   15.4670000  
O 21.1310000   17.7810000   18.0020000  
H 17.0420000   14.3330000   16.8070000  
H 15.9730000   13.2010000   15.9320000  
H 18.9130000   14.6290000   13.0900000  
H 22.6220000   18.1350000   16.3660000  
H 20.5640000   17.7380000   18.7420000  
H 21.0930000   16.1790000   13.8080000  
