76
111 
C 20.5200000   15.8810000   28.0620000  
C 20.4640000   14.5370000   28.6610000  
C 19.6860000   13.5830000   28.0020000  
C 19.0490000   13.8490000   26.7870000  
C 19.2440000   15.1110000   26.1160000  
C 19.9630000   16.1130000   26.7140000  
C 19.3970000   12.2840000   28.3890000  
C 18.5250000   11.8660000   27.3300000  
N 18.2980000   12.8510000   26.4050000  
O 18.1750000    9.6540000   28.0590000  
C 18.0060000   10.5020000   27.0620000  
O 17.4850000   10.1200000   26.0210000  
O 20.2370000   17.2800000   26.0870000  
O 20.9530000   16.8120000   28.7220000  
H 20.9550000   14.3400000   29.6650000  
H 19.8070000   11.7100000   29.1640000  
H 18.5040000   10.2460000   28.7450000  
H 20.0870000   17.0960000   25.1170000  
C 18.6600000   15.3440000   24.7200000  
C 17.3300000   15.5690000   24.5440000  
C 16.7840000   15.9360000   23.2770000  
C 17.5540000   16.1520000   22.1180000  
C 18.9470000   15.9690000   22.2860000  
C 19.4930000   15.4850000   23.5530000  
C 16.2380000   15.3980000   25.4530000  
C 15.0490000   15.6450000   24.6800000  
N 15.3560000   15.9990000   23.3220000  
O 13.5410000   15.3160000   26.4080000  
C 13.6650000   15.7100000   25.1920000  
O 12.6990000   15.9470000   24.4960000  
O 19.7750000   16.2440000   21.2720000  
O 20.8550000   15.4780000   23.7210000  
H 16.2720000   15.1110000   26.5040000  
H 14.4420000   15.0000000   26.4840000  
H 14.7130000   16.3290000   22.5810000  
H 19.2370000   16.5430000   20.5530000  
H 21.1920000   15.9290000   22.9320000  
C 16.9330000   16.6880000   20.8640000  
C 17.1050000   18.0870000   20.5770000  
C 16.4560000   18.5950000   19.5060000  
C 15.5630000   17.9180000   18.6820000  
C 15.3750000   16.5520000   18.9650000  
C 16.1200000   15.9110000   19.9980000  
C 17.8230000   19.1950000   21.2240000  
C 17.5980000   20.2890000   20.4470000  
N 16.8040000   19.9500000   19.3540000  
O 18.3440000   21.7950000   22.0290000  
C 17.9740000   21.6780000   20.7220000  
O 17.9450000   22.5510000   19.8820000  
O 14.4980000   15.8870000   18.1350000  
O 16.0840000   14.5180000   20.1880000  
H 18.3970000   19.0800000   22.1770000  
H 18.3050000   20.9300000   22.4550000  
H 16.3540000   20.5510000   18.6600000  
H 14.4860000   16.4100000   17.3210000  
H 16.7680000   14.2010000   20.8000000  
C 14.7220000   18.6200000   17.6780000  
C 15.2530000   18.9370000   16.4380000  
C 14.4160000   19.4370000   15.4640000  
C 13.0600000   19.7420000   15.7370000  
C 12.5010000   19.3950000   16.9710000  
C 13.3350000   18.8060000   17.9590000  
C 16.4490000   18.5560000   15.6950000  
C 16.2970000   18.8910000   14.3520000  
N 14.9550000   19.2940000   14.2120000  
O 18.3520000   17.9740000   13.5370000  
C 17.2200000   18.6370000   13.2400000  
O 16.9150000   18.9740000   12.0550000  
O 11.1840000   19.6870000   17.3740000  
O 12.7890000   18.5050000   19.1360000  
H 17.2990000   18.1130000   16.2190000  
H 18.4330000   17.8780000   14.5130000  
H 14.5520000   19.5910000   13.3610000  
H 10.9920000   19.3970000   18.3440000  
H 13.3190000   17.8760000   19.6810000  
H 12.4070000   20.1420000   14.9490000  
