76
111 
C 22.3440000   11.2020000   22.1200000  
C 22.2220000   10.4930000   20.8390000  
C 21.2970000   10.9420000   19.9380000  
C 20.5610000   12.1220000   20.1200000  
C 20.6060000   12.8710000   21.3340000  
C 21.4260000   12.3990000   22.3380000  
C 20.9340000   10.4460000   18.6650000  
C 19.9070000   11.3180000   18.2410000  
N 19.6930000   12.3500000   19.0980000  
O 19.2780000    9.9530000   16.4650000  
C 19.0170000   11.1160000   17.0680000  
O 18.1800000   11.9660000   16.7360000  
O 21.6040000   13.1240000   23.4650000  
O 23.1080000   10.9040000   22.9670000  
H 22.7290000    9.5510000   20.7650000  
H 21.2740000    9.5080000   18.1920000  
H 19.7940000    9.4230000   17.0870000  
H 20.7930000   13.7330000   23.4880000  
C 19.7780000   14.1260000   21.4590000  
C 18.6580000   14.1510000   22.1870000  
C 17.8710000   15.2400000   22.3200000  
C 17.9650000   16.3730000   21.5240000  
C 19.0970000   16.4490000   20.6720000  
C 20.0050000   15.3310000   20.7280000  
C 18.1950000   13.1570000   23.1890000  
C 17.0380000   13.6970000   23.6980000  
N 16.8730000   15.0380000   23.2040000  
O 16.3310000   11.8710000   24.9740000  
C 15.9920000   13.0830000   24.5610000  
O 14.9650000   13.6460000   24.9270000  
O 19.3880000   17.5120000   19.8610000  
O 21.0600000   15.2420000   19.8570000  
H 18.7760000   12.2540000   23.5310000  
H 17.1060000   11.6530000   24.4360000  
H 16.2860000   15.8280000   23.4560000  
H 18.6570000   18.1520000   19.8710000  
H 20.9360000   15.9070000   19.1890000  
C 16.9670000   17.4640000   21.6590000  
C 16.6730000   18.1090000   22.8690000  
C 15.6380000   18.9750000   23.0470000  
C 14.7420000   19.4120000   22.0070000  
C 15.0690000   18.8670000   20.7150000  
C 16.0960000   17.8730000   20.5470000  
C 17.3070000   18.1310000   24.1590000  
C 16.6350000   19.0110000   25.0230000  
N 15.5950000   19.5260000   24.3200000  
O 18.0810000   18.7080000   26.8680000  
C 17.0110000   19.4340000   26.4000000  
O 16.3720000   20.2330000   27.0900000  
O 14.2470000   19.1620000   19.6490000  
O 16.4540000   17.4480000   19.3780000  
H 18.2190000   17.5390000   24.3740000  
H 18.4520000   18.0950000   26.1960000  
H 14.8500000   20.1550000   24.6550000  
H 13.6090000   19.7810000   19.9260000  
H 15.8190000   17.9410000   18.7820000  
C 13.5350000   20.2170000   22.2610000  
C 13.3490000   21.5170000   21.6910000  
C 12.2750000   22.3210000   21.9690000  
C 11.2340000   21.8740000   22.7380000  
C 11.3520000   20.5640000   23.3040000  
C 12.4900000   19.7960000   23.1360000  
C 14.0860000   22.2170000   20.7160000  
C 13.3340000   23.2980000   20.2530000  
N 12.2330000   23.4100000   21.0430000  
O 14.8380000   23.8160000   18.4620000  
C 13.6790000   24.1340000   19.0480000  
O 12.9340000   24.9860000   18.5790000  
O 10.2880000   19.9610000   23.8930000  
O 12.5790000   18.5030000   23.5610000  
H 14.9610000   21.8140000   20.1450000  
H 15.3490000   23.2330000   19.0610000  
H 11.5300000   24.0310000   21.1330000  
H 10.5910000   19.0130000   24.0350000  
H 13.3190000   18.0140000   23.0790000  
H 10.4320000   22.5660000   22.9050000  
