76
111 
C 14.7820000   20.1820000   27.9270000  
C 14.7400000   19.1920000   29.0470000  
C 15.2470000   17.9760000   28.8370000  
C 15.6920000   17.4460000   27.6150000  
C 15.7410000   18.3460000   26.4850000  
C 15.3190000   19.6460000   26.6460000  
C 15.2330000   16.9460000   29.7120000  
C 15.7710000   15.8830000   28.9660000  
N 16.1290000   16.2450000   27.6910000  
O 15.8410000   14.3830000   30.8400000  
C 16.0820000   14.5580000   29.4930000  
O 16.6920000   13.7450000   28.8020000  
O 15.5840000   20.6870000   25.7740000  
O 14.4690000   21.2850000   28.0990000  
H 14.2030000   19.4680000   29.9660000  
H 14.8260000   16.9720000   30.7080000  
H 15.5660000   15.2230000   31.2410000  
H 16.2090000   20.3160000   25.1470000  
C 16.1470000   17.8280000   25.1250000  
C 15.3330000   17.3210000   24.1490000  
C 15.7950000   16.7740000   22.9390000  
C 17.1610000   16.6890000   22.5750000  
C 17.9950000   17.0970000   23.5720000  
C 17.5070000   17.6680000   24.8280000  
C 13.8940000   17.1350000   24.1340000  
C 13.5650000   16.5010000   22.8950000  
N 14.7500000   16.3190000   22.1660000  
O 11.1300000   16.3740000   23.4280000  
C 12.1420000   16.3390000   22.4890000  
O 11.8620000   16.1530000   21.3220000  
O 19.3510000   17.0590000   23.3780000  
O 18.4250000   18.0480000   25.7280000  
H 13.1610000   17.3430000   24.9100000  
H 11.5540000   16.6080000   24.2630000  
H 14.8260000   15.8140000   21.3290000  
H 19.5550000   16.9520000   22.4130000  
H 19.2980000   17.6740000   25.7010000  
C 17.4460000   16.1890000   21.1880000  
C 16.9590000   16.9310000   20.1190000  
C 17.1040000   16.5430000   18.8260000  
C 17.8330000   15.4450000   18.4020000  
C 18.3310000   14.6140000   19.4790000  
C 18.1500000   14.9590000   20.8050000  
C 16.1420000   18.0940000   20.0460000  
C 15.9960000   18.4030000   18.7080000  
N 16.6790000   17.5000000   17.9380000  
O 14.8050000   20.4140000   19.1110000  
C 15.3430000   19.5960000   18.2040000  
O 15.2170000   19.8520000   17.0140000  
O 19.0740000   13.5920000   19.0380000  
O 18.7490000   14.1180000   21.6850000  
H 15.5160000   18.4750000   20.7850000  
H 14.9340000   19.9790000   19.9780000  
H 16.9600000   17.6420000   16.9320000  
H 18.6320000   13.5510000   18.1880000  
H 18.5060000   14.5030000   22.5110000  
C 18.1470000   15.1460000   16.9960000  
C 19.4780000   15.4040000   16.5270000  
C 19.8470000   15.1040000   15.2400000  
C 18.9490000   14.4750000   14.3830000  
C 17.6370000   14.1920000   14.8880000  
C 17.1910000   14.5380000   16.1760000  
C 20.5370000   16.1520000   17.1370000  
C 21.5400000   16.3010000   16.1560000  
N 21.0760000   15.6640000   14.9630000  
O 23.1850000   17.2680000   17.5790000  
C 22.8760000   16.8360000   16.3570000  
O 23.7040000   16.8940000   15.4870000  
O 16.6730000   13.7290000   14.0210000  
O 15.9220000   14.2890000   16.6060000  
H 20.5350000   16.5680000   18.1350000  
H 22.3430000   17.1270000   18.0740000  
H 21.6340000   15.4130000   14.1430000  
H 15.9220000   13.6280000   14.5830000  
H 15.9120000   14.7500000   17.4450000  
H 19.2100000   14.2620000   13.3290000  
