76
111 
C 21.8300000   14.4320000   26.8380000  
C 21.6120000   12.9870000   26.9740000  
C 20.5540000   12.3350000   26.3530000  
C 19.5620000   13.0640000   25.6190000  
C 19.8100000   14.4340000   25.3220000  
C 20.8280000   15.1190000   25.9580000  
C 20.1030000   11.0420000   26.3630000  
C 18.9200000   11.0600000   25.6500000  
N 18.5540000   12.3160000   25.1570000  
O 18.7340000    8.6320000   25.7900000  
C 18.2590000    9.7600000   25.1970000  
O 17.4000000    9.6430000   24.3820000  
O 21.0980000   16.4180000   25.8360000  
O 22.7410000   15.0330000   27.3760000  
H 22.1930000   12.4270000   27.6100000  
H 20.5320000   10.1780000   26.8180000  
H 19.5080000    8.9000000   26.2900000  
H 20.2490000   16.9480000   25.8030000  
C 18.9600000   15.1300000   24.3580000  
C 17.6540000   15.6310000   24.7750000  
C 16.9170000   16.2340000   23.7780000  
C 17.2680000   16.4270000   22.4340000  
C 18.4780000   15.8820000   22.0710000  
C 19.2880000   15.1830000   23.0060000  
C 16.8790000   15.7580000   26.0530000  
C 15.7500000   16.4080000   25.8010000  
N 15.7230000   16.6720000   24.3870000  
O 15.0750000   16.6990000   28.1090000  
C 14.8150000   16.9250000   26.7880000  
O 13.9170000   17.6930000   26.5050000  
O 18.9430000   16.0740000   20.8490000  
O 20.3470000   14.4800000   22.5790000  
H 17.3300000   15.6210000   27.0150000  
H 15.8870000   16.2220000   28.2870000  
H 14.9890000   17.1850000   23.9460000  
H 18.3610000   16.6520000   20.3680000  
H 20.5610000   14.7700000   21.6560000  
C 16.3800000   17.0510000   21.3950000  
C 16.6040000   18.3260000   20.8560000  
C 15.8880000   18.7740000   19.7770000  
C 14.7460000   18.1720000   19.2890000  
C 14.5060000   16.8050000   19.7680000  
C 15.3490000   16.2680000   20.8040000  
C 17.6660000   19.2300000   20.9830000  
C 17.3950000   20.3250000   20.2610000  
N 16.2590000   20.0920000   19.5360000  
O 19.4290000   21.4260000   20.8690000  
C 18.1790000   21.5700000   20.3340000  
O 17.7210000   22.6740000   20.0660000  
O 13.5960000   16.0790000   19.1150000  
O 14.9380000   15.1190000   21.3620000  
H 18.5080000   19.1380000   21.7180000  
H 19.5220000   20.5520000   21.2530000  
H 15.8460000   20.6610000   18.7820000  
H 13.4740000   16.5910000   18.3030000  
H 15.6780000   14.6650000   21.9190000  
C 13.9320000   18.8500000   18.2570000  
C 14.5390000   19.2080000   17.0410000  
C 13.8330000   19.8680000   16.0670000  
C 12.4250000   20.1440000   16.1890000  
C 11.8330000   19.8570000   17.4400000  
C 12.5340000   19.2040000   18.4810000  
C 15.8430000   18.8610000   16.4580000  
C 15.8290000   19.4110000   15.1650000  
N 14.5790000   20.0050000   14.9660000  
O 18.0180000   18.7810000   14.5340000  
C 16.8300000   19.3160000   14.1340000  
O 16.5490000   19.5940000   12.9830000  
O 10.4620000   20.0490000   17.5390000  
O 11.9000000   18.8500000   19.6390000  
H 16.5790000   18.2360000   16.9080000  
H 17.8630000   18.6970000   15.5000000  
H 14.1600000   20.3130000   14.1220000  
H 10.2440000   19.7630000   18.4530000  
H 12.5430000   18.2780000   20.1060000  
H 11.8130000   20.5970000   15.3960000  
