76
111 
C 22.8300000   11.7380000   20.8980000  
C 22.3980000   10.6410000   21.7630000  
C 21.1390000   10.7010000   22.2360000  
C 20.2510000   11.8030000   22.0550000  
C 20.5920000   12.8640000   21.2280000  
C 21.8170000   12.8430000   20.6020000  
C 20.3330000    9.7750000   22.9700000  
C 19.1470000   10.3550000   23.2900000  
N 19.1030000   11.6750000   22.7710000  
O 18.0210000    8.5180000   24.5070000  
C 17.9830000    9.8230000   24.0150000  
O 17.0190000   10.4970000   24.2750000  
O 22.3480000   13.7720000   19.8010000  
O 23.9750000   11.7300000   20.4300000  
H 23.0460000    9.8510000   22.0400000  
H 20.6370000    8.8540000   23.4190000  
H 18.8410000    8.0590000   24.1960000  
H 22.0690000   14.6350000   20.1120000  
C 19.5870000   13.9680000   21.1240000  
C 19.2860000   14.7720000   22.2500000  
C 18.1560000   15.5780000   22.2630000  
C 17.2810000   15.7490000   21.2400000  
C 17.6270000   15.0590000   20.0430000  
C 18.7220000   14.1180000   20.0090000  
C 19.8270000   14.8460000   23.5650000  
C 19.1540000   15.8530000   24.2890000  
N 18.0970000   16.2940000   23.4610000  
O 20.3750000   15.5100000   26.3200000  
C 19.3550000   16.2300000   25.7040000  
O 18.6940000   17.1160000   26.2650000  
O 16.7970000   15.2270000   18.9330000  
O 19.0220000   13.3970000   18.8830000  
H 20.6080000   14.2080000   23.9600000  
H 20.7130000   14.8250000   25.7050000  
H 17.3290000   16.9360000   23.6250000  
H 16.0530000   15.8450000   19.1330000  
H 18.2040000   13.1860000   18.3950000  
C 16.1650000   16.7330000   21.2880000  
C 16.5450000   18.1240000   21.3930000  
C 15.5570000   19.0810000   21.5340000  
C 14.1670000   18.8750000   21.7020000  
C 13.8710000   17.4900000   21.7460000  
C 14.7930000   16.4000000   21.5510000  
C 17.7300000   18.8820000   21.2890000  
C 17.4220000   20.2530000   21.1790000  
N 16.0300000   20.3560000   21.4110000  
O 19.6310000   20.9940000   20.7090000  
C 18.2940000   21.3330000   20.7550000  
O 17.8620000   22.4230000   20.4950000  
O 12.5490000   17.1540000   22.1200000  
O 14.4860000   15.1130000   21.7690000  
H 18.6110000   18.4430000   20.9030000  
H 19.6140000   20.0960000   21.0660000  
H 15.5740000   21.2430000   21.2190000  
H 11.9580000   17.9310000   22.1050000  
H 15.2500000   14.6600000   22.0940000  
C 13.1690000   19.9780000   21.9800000  
C 12.7990000   20.9130000   21.0100000  
C 11.9840000   21.9780000   21.2220000  
C 11.2050000   21.9720000   22.3420000  
C 11.4670000   21.0340000   23.3250000  
C 12.5170000   20.0560000   23.2020000  
C 13.2810000   21.0210000   19.6220000  
C 12.7960000   22.2580000   19.1020000  
N 11.8840000   22.7290000   20.0600000  
O 13.9910000   22.2330000   17.0130000  
C 13.0200000   22.8420000   17.7180000  
O 12.3510000   23.7290000   17.2240000  
O 10.6740000   21.1530000   24.4380000  
O 12.8970000   19.3010000   24.2060000  
H 13.9040000   20.3140000   19.1580000  
H 14.4270000   21.5550000   17.6100000  
H 11.3850000   23.5990000   19.9100000  
H 10.5600000   20.1880000   24.6730000  
H 13.6860000   18.9320000   23.8860000  
H 10.5160000   22.8050000   22.4930000  
