76
111 
C 17.7940000   15.1550000   14.2770000  
C 16.7330000   14.1560000   13.9880000  
C 15.8500000   13.8110000   14.9910000  
C 15.8960000   14.4250000   16.2630000  
C 16.8650000   15.4640000   16.5690000  
C 17.7970000   15.7710000   15.6370000  
C 14.8140000   12.8960000   15.1170000  
C 14.2700000   13.0470000   16.4050000  
N 15.0060000   13.9840000   17.1110000  
O 12.6800000   11.4050000   15.9040000  
C 13.2650000   12.1200000   16.9320000  
O 12.9810000   12.0090000   18.1280000  
O 18.6760000   16.7630000   15.8130000  
O 18.6320000   15.3470000   13.4080000  
H 16.6540000   13.8190000   12.9420000  
H 14.5940000   12.1470000   14.3970000  
H 12.9550000   11.7590000   15.0390000  
H 18.6560000   16.9270000   16.7100000  
C 16.9830000   16.0550000   17.9100000  
C 17.4370000   15.2030000   18.9680000  
C 17.4030000   15.6500000   20.2810000  
C 16.9840000   16.9190000   20.6340000  
C 16.5730000   17.8020000   19.6110000  
C 16.5690000   17.3730000   18.2470000  
C 17.7590000   13.8420000   18.9540000  
C 18.0000000   13.4430000   20.3420000  
N 17.6630000   14.6140000   21.1090000  
O 18.2730000   11.1480000   19.9260000  
C 18.3440000   12.1130000   20.8540000  
O 18.7250000   11.8950000   22.0000000  
O 16.1160000   19.0130000   19.9550000  
O 16.1350000   18.2790000   17.2280000  
H 18.0340000   13.1860000   18.1150000  
H 18.0460000   11.5780000   19.1220000  
H 17.8060000   14.6810000   22.1140000  
H 15.9910000   19.0740000   20.9280000  
H 15.8360000   19.0860000   17.6480000  
C 16.8660000   17.3530000   22.0960000  
C 17.9050000   18.0470000   22.6980000  
C 17.9070000   18.3320000   24.0270000  
C 17.0570000   17.7460000   24.9230000  
C 15.9430000   17.0490000   24.3470000  
C 15.9020000   16.8340000   22.9670000  
C 19.0680000   18.6760000   22.1870000  
C 19.7490000   19.2440000   23.2090000  
N 19.0220000   19.0330000   24.3710000  
O 21.5040000   20.3830000   21.9140000  
C 20.8800000   20.1910000   23.1360000  
O 21.0610000   20.9640000   24.0700000  
O 15.0720000   16.3760000   25.1580000  
O 14.8580000   16.0700000   22.4190000  
H 19.2580000   18.8480000   21.1020000  
H 21.1060000   19.7400000   21.2180000  
H 19.1330000   19.6940000   25.1280000  
H 15.4530000   16.4770000   26.0220000  
H 14.2160000   15.8790000   23.0660000  
C 17.1160000   17.9590000   26.4410000  
C 16.4610000   19.0020000   27.1380000  
C 16.3760000   18.9680000   28.4910000  
C 17.0910000   18.1070000   29.3060000  
C 17.9710000   17.2140000   28.7020000  
C 18.0100000   17.0950000   27.2490000  
C 15.7790000   20.2870000   26.7760000  
C 15.2580000   20.8110000   27.9450000  
N 15.7020000   20.0450000   29.0500000  
O 14.3750000   22.7710000   26.8880000  
C 14.5610000   22.0780000   28.0080000  
O 14.1820000   22.5840000   29.0510000  
O 18.7130000   16.4650000   29.5190000  
O 18.6360000   16.0760000   26.6600000  
H 15.6570000   20.7020000   25.7740000  
H 14.5140000   22.1440000   26.2140000  
H 15.6530000   20.4140000   29.9850000  
H 19.4750000   16.1870000   29.0470000  
H 18.5900000   16.3030000   25.6790000  
H 17.0090000   18.3260000   30.4120000  
