76
111 
C 10.5820000   20.2100000   24.1340000  
C  9.6320000   20.0970000   22.9650000  
C 10.0650000   19.5430000   21.7980000  
C 11.3610000   19.0520000   21.5950000  
C 12.2380000   19.0160000   22.6580000  
C 11.9030000   19.6170000   23.8720000  
C  9.3910000   19.2660000   20.5340000  
C 10.3310000   18.6250000   19.6610000  
N 11.5270000   18.5330000   20.3470000  
O  9.0960000   18.6940000   17.6880000  
C 10.2120000   18.2810000   18.2840000  
O 11.0340000   17.6780000   17.7250000  
O 12.7850000   19.6820000   24.8770000  
O 10.2300000   20.7160000   25.1910000  
H  8.6030000   20.4350000   23.1800000  
H  8.4470000   19.6470000   20.2510000  
H  8.4940000   19.0610000   18.3620000  
H 13.5810000   19.2100000   24.7610000  
C 13.4820000   18.2450000   22.5360000  
C 14.4840000   18.7700000   21.7300000  
C 15.7030000   18.1470000   21.6530000  
C 16.1020000   16.9320000   22.2160000  
C 15.1010000   16.3640000   23.0550000  
C 13.7520000   17.0250000   23.1450000  
C 14.4700000   20.0060000   21.0160000  
C 15.7690000   20.1210000   20.5050000  
N 16.5460000   19.0160000   20.9840000  
O 15.2720000   21.9860000   19.1540000  
C 16.2080000   21.1840000   19.5750000  
O 17.3430000   21.2400000   19.1840000  
O 15.3550000   15.1640000   23.7410000  
O 12.6990000   16.3760000   23.7700000  
H 13.6380000   20.6500000   20.7800000  
H 14.5170000   21.7940000   19.7030000  
H 17.4890000   18.8640000   20.6360000  
H 16.2900000   14.9740000   23.5060000  
H 12.9370000   15.6020000   24.2910000  
C 17.4780000   16.3650000   21.9700000  
C 18.3140000   15.9270000   23.0290000  
C 19.5740000   15.4310000   22.8120000  
C 20.1970000   15.3360000   21.5210000  
C 19.3710000   15.8050000   20.4380000  
C 18.0430000   16.1890000   20.6370000  
C 18.1790000   16.1400000   24.4470000  
C 19.3550000   15.5590000   25.0150000  
N 20.1540000   14.9720000   24.0410000  
O 18.7680000   16.1100000   27.3470000  
C 19.6670000   15.5850000   26.5070000  
O 20.7340000   15.2150000   26.9160000  
O 19.8990000   15.6540000   19.1510000  
O 17.2720000   16.5150000   19.5640000  
H 17.3690000   16.6360000   24.9700000  
H 17.9490000   16.3960000   26.8960000  
H 21.0370000   14.4700000   24.1200000  
H 20.7740000   15.3930000   19.3300000  
H 17.9030000   16.2670000   18.8450000  
C 21.5650000   14.8470000   21.4270000  
C 21.9590000   13.5790000   20.8520000  
C 23.2930000   13.1970000   20.8200000  
C 24.3260000   13.9860000   21.4140000  
C 23.9390000   15.1650000   22.1060000  
C 22.5740000   15.6630000   22.0680000  
C 21.2250000   12.4980000   20.2670000  
C 22.1200000   11.5640000   19.7530000  
N 23.4140000   12.0350000   20.1700000  
O 20.4210000   10.3170000   18.6040000  
C 21.7420000   10.4920000   18.8680000  
O 22.6100000    9.8230000   18.2970000  
O 24.8520000   15.8150000   22.8640000  
O 22.3220000   16.9300000   22.6480000  
H 20.1720000   12.6000000   19.8600000  
H 19.9440000   10.9870000   19.0730000  
H 24.2710000   11.5540000   20.0570000  
H 24.2990000   16.4200000   23.3950000  
H 21.3480000   17.1280000   22.6280000  
H 25.3140000   13.6380000   21.4880000  
