76
111 
C 11.8680000   20.8950000   25.3940000  
C 10.4990000   20.4610000   25.0800000  
C 10.4160000   19.3820000   24.2140000  
C 11.5580000   18.6890000   23.6550000  
C 12.8530000   19.0980000   23.9760000  
C 13.0230000   20.1210000   24.8230000  
C  9.3290000   18.6970000   23.7440000  
C  9.7520000   17.8000000   22.7720000  
N 11.1940000   17.7520000   22.7590000  
O  7.5610000   17.0410000   22.1060000  
C  8.9220000   16.8440000   22.0050000  
O  9.4370000   15.9850000   21.3670000  
O 14.2250000   20.7980000   25.0230000  
O 11.9920000   21.8370000   26.1510000  
H  9.6100000   20.9630000   25.4740000  
H  8.2980000   19.0530000   23.9100000  
H  7.3100000   17.7520000   22.7430000  
H 14.8020000   20.6160000   24.2680000  
C 14.0840000   18.5500000   23.3230000  
C 14.4090000   18.7590000   21.9700000  
C 15.4760000   18.0930000   21.4260000  
C 16.3580000   17.2220000   22.1210000  
C 16.0520000   16.9870000   23.5020000  
C 14.8900000   17.6330000   24.0560000  
C 13.8110000   19.5650000   20.9050000  
C 14.6220000   19.4100000   19.8460000  
N 15.6160000   18.4920000   20.1040000  
O 13.2000000   20.9160000   18.5680000  
C 14.3620000   20.1990000   18.5960000  
O 15.0840000   20.0110000   17.6130000  
O 16.7300000   16.0080000   24.2230000  
O 14.6100000   17.3670000   25.3390000  
H 13.0080000   20.2620000   20.9980000  
H 12.8950000   20.9230000   19.5170000  
H 16.4060000   18.2270000   19.5180000  
H 17.3670000   15.6730000   23.7460000  
H 15.0030000   16.5290000   25.6100000  
C 17.5640000   16.6270000   21.4990000  
C 18.8180000   16.7710000   22.0550000  
C 19.9320000   16.2060000   21.5050000  
C 19.9450000   15.3580000   20.3450000  
C 18.6840000   15.1770000   19.7700000  
C 17.4940000   15.7030000   20.3790000  
C 19.3380000   17.5040000   23.1690000  
C 20.6850000   17.2920000   23.3060000  
N 21.0600000   16.4780000   22.2530000  
O 20.9300000   18.2880000   25.5020000  
C 21.5860000   17.6930000   24.4390000  
O 22.7990000   17.5010000   24.4600000  
O 18.5880000   14.4410000   18.6590000  
O 16.3490000   15.5670000   19.6630000  
H 18.7380000   18.2080000   23.7890000  
H 20.0060000   18.3530000   25.2890000  
H 21.9500000   16.0210000   22.1530000  
H 19.4840000   14.0350000   18.4530000  
H 16.5280000   15.0240000   18.8600000  
C 21.2530000   14.8020000   19.7780000  
C 21.5630000   13.4560000   19.9380000  
C 22.7890000   12.9480000   19.4740000  
C 23.6640000   13.7000000   18.7080000  
C 23.3310000   15.0490000   18.5540000  
C 22.1430000   15.6010000   19.0690000  
C 20.8760000   12.3010000   20.5700000  
C 21.7990000   11.1730000   20.4520000  
N 22.9110000   11.5880000   19.7230000  
O 20.3780000    9.5390000   21.3700000  
C 21.6160000    9.7680000   20.8780000  
O 22.3800000    8.8610000   20.7160000  
O 24.1510000   15.7680000   17.8170000  
O 21.8070000   16.8890000   18.7750000  
H 19.8930000   12.2770000   21.0510000  
H 19.9380000   10.3990000   21.3650000  
H 23.4940000   11.0410000   19.1980000  
H 23.7060000   16.5730000   17.3960000  
H 20.9520000   17.1190000   19.2260000  
H 24.5760000   13.2460000   18.3630000  
