76
111 
C 18.4890000    9.9460000   18.6270000  
C 19.2410000   10.2500000   17.3860000  
C 19.5830000   11.6180000   17.0830000  
C 19.1740000   12.6690000   17.8960000  
C 18.5250000   12.4280000   19.1480000  
C 18.1430000   11.0950000   19.5150000  
C 20.5720000   12.1320000   16.2340000  
C 20.5290000   13.5190000   16.3390000  
N 19.7310000   13.7970000   17.4340000  
O 22.2990000   14.0220000   14.7310000  
C 21.4550000   14.4870000   15.7260000  
O 21.5750000   15.6590000   16.0540000  
O 17.3790000   10.7520000   20.5480000  
O 18.2180000    8.7550000   18.8820000  
H 19.5160000    9.3940000   16.8560000  
H 21.1780000   11.6360000   15.5630000  
H 22.2660000   13.0360000   14.8170000  
H 16.8480000   11.5140000   20.8640000  
C 18.1500000   13.5820000   19.9690000  
C 16.8850000   14.1660000   19.9420000  
C 16.5640000   15.3480000   20.5930000  
C 17.5190000   16.1570000   21.3160000  
C 18.7990000   15.4920000   21.4380000  
C 19.0990000   14.2680000   20.7820000  
C 15.6930000   13.8670000   19.0840000  
C 14.8000000   14.9150000   19.2770000  
N 15.3130000   15.8040000   20.2550000  
O 13.1370000   13.9630000   17.8280000  
C 13.5160000   15.0190000   18.6320000  
O 12.8040000   15.9630000   18.8120000  
O 19.8610000   16.0650000   22.1200000  
O 20.3500000   13.7570000   20.9600000  
H 15.6900000   13.1660000   18.2930000  
H 13.7200000   13.2320000   17.9130000  
H 14.8680000   16.6950000   20.5850000  
H 19.6780000   17.0070000   22.2830000  
H 20.8250000   14.2630000   21.6800000  
C 17.1620000   17.4680000   21.9890000  
C 15.9740000   17.5950000   22.7820000  
C 15.6770000   18.7640000   23.4470000  
C 16.4590000   19.9040000   23.3470000  
C 17.6000000   19.8370000   22.5040000  
C 17.9310000   18.6190000   21.8170000  
C 14.9560000   16.6880000   23.2450000  
C 14.1270000   17.3370000   24.1390000  
N 14.6030000   18.6510000   24.2570000  
O 12.7170000   15.5400000   24.4930000  
C 12.9760000   16.8150000   24.8690000  
O 12.3160000   17.3850000   25.7650000  
O 18.4970000   20.8300000   22.5680000  
O 19.0170000   18.6690000   20.9950000  
H 14.9110000   15.6300000   23.2010000  
H 13.2030000   15.4700000   23.6820000  
H 14.2820000   19.3970000   24.8120000  
H 18.1210000   21.5160000   23.1220000  
H 18.8610000   17.8630000   20.4430000  
C 16.0500000   21.1400000   24.0290000  
C 15.9630000   21.0910000   25.3900000  
C 15.3710000   22.0860000   26.1370000  
C 15.0170000   23.2750000   25.5010000  
C 15.2910000   23.4210000   24.1350000  
C 15.7930000   22.3520000   23.3940000  
C 16.3300000   20.0240000   26.3440000  
C 15.8670000   20.4770000   27.5700000  
N 15.2610000   21.7340000   27.4410000  
O 16.6160000   18.5860000   28.7840000  
C 15.9440000   19.7630000   28.8930000  
O 15.5450000   20.2430000   29.9800000  
O 15.2330000   24.6610000   23.5100000  
O 15.7630000   22.4650000   22.0490000  
H 16.9630000   19.1360000   26.2170000  
H 16.6010000   18.4470000   27.8360000  
H 14.7260000   22.1590000   28.1690000  
H 15.8340000   24.5700000   22.7480000  
H 15.5660000   21.6050000   21.7250000  
H 14.6010000   24.1490000   26.0800000  
