76
111 
C 22.2490000   12.5910000   18.1230000  
C 21.5110000   11.3220000   17.8660000  
C 20.1250000   11.1910000   18.0800000  
C 19.4300000   12.2790000   18.6200000  
C 20.0890000   13.5130000   18.9290000  
C 21.4330000   13.7110000   18.6440000  
C 19.2570000   10.1190000   17.9580000  
C 18.0450000   10.6300000   18.3570000  
N 18.1740000   11.9490000   18.8360000  
O 16.8280000    8.6530000   17.7680000  
C 16.7920000    9.8330000   18.3690000  
O 15.8740000   10.1930000   19.0580000  
O 22.0440000   14.8590000   18.9070000  
O 23.4080000   12.7610000   17.7970000  
H 22.0930000   10.5040000   17.4370000  
H 19.5510000    9.0670000   17.8140000  
H 17.6780000    8.6290000   17.2660000  
H 21.5310000   15.3500000   19.5050000  
C 19.2570000   14.5960000   19.5420000  
C 18.5750000   14.3890000   20.7550000  
C 17.7130000   15.3070000   21.3000000  
C 17.4730000   16.5380000   20.6620000  
C 18.1450000   16.7960000   19.4320000  
C 18.9700000   15.8000000   18.8600000  
C 18.7160000   13.3070000   21.7060000  
C 17.8990000   13.5870000   22.7770000  
N 17.3470000   14.8990000   22.6120000  
O 18.2460000   11.6030000   23.9010000  
C 17.6680000   12.7840000   24.0110000  
O 17.0640000   13.2790000   24.9610000  
O 17.9900000   17.9730000   18.8010000  
O 19.5310000   16.0800000   17.6840000  
H 19.2860000   12.4160000   21.4610000  
H 18.7510000   11.5430000   23.1180000  
H 16.6730000   15.3810000   23.2020000  
H 17.3240000   18.6010000   19.1150000  
H 18.9690000   16.8330000   17.2800000  
C 16.5320000   17.5040000   21.3280000  
C 16.8920000   18.0920000   22.5410000  
C 16.0140000   18.8880000   23.2320000  
C 14.7220000   19.1910000   22.7770000  
C 14.3970000   18.7460000   21.4740000  
C 15.2960000   17.8890000   20.7990000  
C 17.9420000   17.7870000   23.4630000  
C 17.6800000   18.5110000   24.6400000  
N 16.4290000   19.0970000   24.5170000  
O 19.6580000   17.8750000   25.7710000  
C 18.5740000   18.7680000   25.7950000  
O 18.2750000   19.4740000   26.7340000  
O 13.1870000   19.1440000   20.9500000  
O 14.9440000   17.2930000   19.6940000  
H 18.7870000   17.1290000   23.2510000  
H 19.4980000   17.4070000   24.9220000  
H 15.8930000   19.5040000   25.2700000  
H 12.6290000   19.6790000   21.6140000  
H 14.0680000   17.6690000   19.4500000  
C 13.7470000   19.9590000   23.6260000  
C 13.9320000   21.3440000   23.8360000  
C 13.1130000   21.9970000   24.6540000  
C 12.0630000   21.3880000   25.3450000  
C 11.8590000   20.0400000   25.1320000  
C 12.6600000   19.2490000   24.2270000  
C 14.7480000   22.3460000   23.2560000  
C 14.3120000   23.5470000   23.7370000  
N 13.2670000   23.3500000   24.5980000  
O 15.5780000   24.9740000   22.2110000  
C 14.7270000   24.8870000   23.2920000  
O 14.3200000   25.9540000   23.8220000  
O 10.9590000   19.4220000   25.9970000  
O 12.5190000   17.8850000   24.1190000  
H 15.5410000   22.1490000   22.5170000  
H 15.5270000   24.0780000   21.7940000  
H 12.7890000   24.1380000   25.0570000  
H 11.0090000   18.4660000   25.8090000  
H 13.2720000   17.5680000   23.5190000  
H 11.5260000   21.9890000   26.0330000  
