76
111 
C 10.3760000   19.9150000   20.4620000  
C  9.9730000   20.7720000   21.5850000  
C 10.8360000   20.8420000   22.7000000  
C 12.0150000   20.1840000   22.7790000  
C 12.5170000   19.4180000   21.7010000  
C 11.6640000   19.1510000   20.5990000  
C 10.7590000   21.5600000   23.8770000  
C 11.9130000   21.3080000   24.5810000  
N 12.7700000   20.5370000   23.8140000  
O 11.2340000   22.4780000   26.5860000  
C 12.1990000   21.7030000   25.9520000  
O 13.1500000   21.3280000   26.5160000  
O 11.9400000   18.3210000   19.5670000  
O  9.6610000   19.7750000   19.4610000  
H  9.0920000   21.3730000   21.5490000  
H 10.0150000   22.2210000   24.1870000  
H 10.6300000   22.5040000   25.8740000  
H 12.7330000   17.8360000   19.9020000  
C 13.8000000   18.6530000   21.8880000  
C 13.8300000   17.3240000   22.2710000  
C 14.9510000   16.5920000   22.1430000  
C 16.2300000   17.1370000   21.8700000  
C 16.2150000   18.5090000   21.5150000  
C 15.0220000   19.2480000   21.5570000  
C 12.7690000   16.4980000   22.7230000  
C 13.3410000   15.2320000   22.9230000  
N 14.6900000   15.2590000   22.4370000  
O 11.5400000   14.2950000   24.0910000  
C 12.7200000   13.9910000   23.5290000  
O 13.2390000   12.8750000   23.4400000  
O 17.3540000   19.1050000   21.1010000  
O 15.0410000   20.5210000   21.1190000  
H 11.7350000   16.7470000   22.8900000  
H 11.2450000   15.1690000   23.9090000  
H 15.3630000   14.4920000   22.4450000  
H 17.9790000   18.3980000   20.9930000  
H 15.9000000   20.9620000   21.3280000  
C 17.4530000   16.2100000   21.7260000  
C 18.0990000   15.9770000   20.4780000  
C 19.1790000   15.1080000   20.4710000  
C 19.7860000   14.4710000   21.5880000  
C 19.2340000   14.8370000   22.8120000  
C 18.1240000   15.7120000   22.8720000  
C 17.9320000   16.4430000   19.1310000  
C 18.8350000   15.6860000   18.3420000  
N 19.6290000   14.9420000   19.1730000  
O 17.9820000   16.7050000   16.3470000  
C 18.9630000   15.8670000   16.9010000  
O 19.8320000   15.3390000   16.1900000  
O 19.9100000   14.5770000   23.9200000  
O 17.7380000   16.0630000   24.1230000  
H 17.2750000   17.2480000   18.7600000  
H 17.6500000   17.1230000   17.1510000  
H 20.3020000   14.1830000   18.9430000  
H 20.8240000   14.4310000   23.6630000  
H 17.0280000   16.6710000   24.0440000  
C 21.0460000   13.6580000   21.4300000  
C 22.3560000   14.2010000   21.4220000  
C 23.4650000   13.4010000   21.2700000  
C 23.3590000   12.0230000   21.3220000  
C 22.0590000   11.4410000   21.3390000  
C 20.9190000   12.2780000   21.3770000  
C 22.8330000   15.5470000   21.4980000  
C 24.2090000   15.5710000   21.4560000  
N 24.6360000   14.2000000   21.4420000  
O 24.1900000   17.9720000   21.6710000  
C 24.9600000   16.8210000   21.4420000  
O 26.1600000   16.9220000   21.2180000  
O 21.8610000   10.0810000   21.4750000  
O 19.6960000   11.6800000   21.3390000  
H 22.1880000   16.3930000   21.4640000  
H 23.2470000   17.6470000   21.8300000  
H 25.5710000   13.9410000   21.5490000  
H 20.9120000    9.8810000   21.5920000  
H 18.9540000   12.2990000   21.1830000  
H 24.2960000   11.4380000   21.4770000  
