76
111 
C 18.6030000    9.9490000   24.0680000  
C 20.0520000    9.7900000   24.2060000  
C 20.8490000   10.8400000   24.1330000  
C 20.4110000   12.1560000   23.9480000  
C 18.9900000   12.4090000   23.7610000  
C 18.1280000   11.3330000   23.8150000  
C 22.2840000   10.9450000   24.0510000  
C 22.5410000   12.2830000   23.8950000  
N 21.3380000   13.0360000   23.7980000  
O 24.8460000   12.0550000   23.8750000  
C 23.8510000   12.9270000   23.6860000  
O 24.0320000   14.1260000   23.4030000  
O 16.7960000   11.3910000   23.5860000  
O 17.9050000    9.0160000   24.0100000  
H 20.2400000    8.7490000   24.3960000  
H 23.0260000   10.1420000   24.1830000  
H 24.3390000   11.2550000   24.1600000  
H 16.6950000   12.3410000   23.4470000  
C 18.6050000   13.8050000   23.4560000  
C 18.6210000   14.2370000   22.1610000  
C 18.0700000   15.4800000   21.8750000  
C 17.4610000   16.4110000   22.7580000  
C 17.5170000   15.9770000   24.1120000  
C 18.1970000   14.7470000   24.4440000  
C 18.9620000   13.5900000   20.9230000  
C 18.6700000   14.4860000   19.9160000  
N 18.1290000   15.6320000   20.5370000  
O 19.8310000   13.3050000   18.1600000  
C 19.0920000   14.4000000   18.4670000  
O 18.9300000   15.2940000   17.6570000  
O 16.8080000   16.5780000   25.0710000  
O 18.2920000   14.3670000   25.7440000  
H 19.3620000   12.5580000   20.8620000  
H 20.0160000   13.0820000   19.0440000  
H 18.0080000   16.5790000   20.0950000  
H 16.4540000   17.4180000   24.7240000  
H 17.8870000   15.0460000   26.3130000  
C 16.7250000   17.6370000   22.3380000  
C 15.8080000   17.5930000   21.2960000  
C 15.2740000   18.7550000   20.8110000  
C 15.5930000   20.0540000   21.0990000  
C 16.4480000   20.0620000   22.2250000  
C 17.0550000   18.9030000   22.8740000  
C 15.2430000   16.4950000   20.6320000  
C 14.3880000   17.0960000   19.6820000  
N 14.4000000   18.4640000   19.8430000  
O 13.5580000   15.1500000   18.5900000  
C 13.5800000   16.4960000   18.6310000  
O 12.8710000   17.1670000   17.9180000  
O 16.8310000   21.3060000   22.6880000  
O 17.9050000   18.9060000   23.8880000  
H 15.4980000   15.4820000   20.7090000  
H 14.1880000   14.9820000   19.2980000  
H 13.8600000   19.1530000   19.3320000  
H 16.2260000   21.9990000   22.3300000  
H 18.1300000   17.9770000   24.1290000  
C 15.0260000   21.2870000   20.4660000  
C 13.6180000   21.5320000   20.6380000  
C 13.0770000   22.6720000   20.0760000  
C 13.8230000   23.5910000   19.3370000  
C 15.2250000   23.3350000   19.1650000  
C 15.8450000   22.2230000   19.7740000  
C 12.4890000   20.7960000   21.2010000  
C 11.3720000   21.7130000   21.1660000  
N 11.7740000   22.8680000   20.5180000  
O  9.7160000   20.1920000   21.9170000  
C  9.9910000   21.4820000   21.5970000  
O  9.1140000   22.3370000   21.4630000  
O 15.9870000   24.2620000   18.5800000  
O 17.2100000   21.9370000   19.6460000  
H 12.3950000   19.7820000   21.5670000  
H 10.5930000   19.9240000   22.0000000  
H 11.2430000   23.7170000   20.4260000  
H 16.9540000   23.9570000   18.4710000  
H 17.4270000   21.3760000   20.3840000  
H 13.4680000   24.4790000   18.8570000  
