76
111 
C 21.6050000   12.6040000   18.0100000  
C 21.4640000   11.1610000   18.3740000  
C 20.4860000   10.7890000   19.3050000  
C 19.5830000   11.6750000   19.8730000  
C 19.6220000   13.0110000   19.4450000  
C 20.5340000   13.4620000   18.5280000  
C 20.1950000    9.4960000   19.8090000  
C 19.1940000    9.7260000   20.7670000  
N 18.7680000   11.0510000   20.6810000  
O 19.3850000    7.6710000   21.5960000  
C 18.5780000    8.7060000   21.6410000  
O 17.5920000    8.7740000   22.3310000  
O 20.5250000   14.7530000   18.1400000  
O 22.4580000   12.9920000   17.2390000  
H 22.1440000   10.4900000   17.9210000  
H 20.8220000    8.6210000   19.6140000  
H 20.0510000    8.0650000   20.9950000  
H 19.8080000   15.2600000   18.5360000  
C 18.6900000   13.9280000   20.1420000  
C 18.9570000   14.4870000   21.3840000  
C 18.1370000   15.4270000   22.0640000  
C 17.0410000   15.9730000   21.4050000  
C 16.7350000   15.4890000   20.1190000  
C 17.5530000   14.4710000   19.4890000  
C 20.0720000   14.2680000   22.2840000  
C 19.8470000   15.0460000   23.4020000  
N 18.6820000   15.7960000   23.2550000  
O 21.9050000   14.7080000   24.6640000  
C 20.7450000   15.3400000   24.5460000  
O 20.3550000   16.0340000   25.4760000  
O 15.6330000   15.9590000   19.5350000  
O 17.1420000   13.9660000   18.2410000  
H 20.9950000   13.7460000   22.0280000  
H 21.9180000   14.0690000   23.9010000  
H 18.3560000   16.5420000   23.8480000  
H 15.3150000   16.5210000   20.2290000  
H 16.6510000   14.7570000   17.8840000  
C 16.1670000   17.0080000   22.1060000  
C 16.6000000   18.3310000   21.9890000  
C 15.9250000   19.3640000   22.6120000  
C 14.8130000   19.2460000   23.4020000  
C 14.3650000   17.9150000   23.6080000  
C 15.0200000   16.7800000   22.9590000  
C 17.7090000   18.8990000   21.2750000  
C 17.6010000   20.2920000   21.4160000  
N 16.5190000   20.5670000   22.2340000  
O 19.2650000   20.8920000   19.7100000  
C 18.5240000   21.2620000   20.7850000  
O 18.6120000   22.4160000   21.2200000  
O 13.2700000   17.6960000   24.3870000  
O 14.5790000   15.4910000   23.1140000  
H 18.4990000   18.2600000   20.7580000  
H 19.0730000   19.9580000   19.4940000  
H 16.2090000   21.4690000   22.5100000  
H 13.0990000   18.4540000   24.9570000  
H 15.2050000   14.9170000   22.6160000  
C 14.0170000   20.3670000   23.9610000  
C 13.0030000   20.8690000   23.1610000  
C 12.2280000   21.9270000   23.5490000  
C 12.4280000   22.5110000   24.7640000  
C 13.5400000   22.1650000   25.5170000  
C 14.3050000   21.0690000   25.0980000  
C 12.6860000   20.5680000   21.8150000  
C 11.7080000   21.5330000   21.4620000  
N 11.4080000   22.3400000   22.5690000  
O 11.4500000   20.8460000   19.1910000  
C 11.0280000   21.6820000   20.1880000  
O 10.1440000   22.4650000   19.9390000  
O 13.8340000   22.8070000   26.6220000  
O 15.2630000   20.6060000   25.9720000  
H 13.1170000   19.8220000   21.1810000  
H 12.0580000   20.2350000   19.5990000  
H 10.9530000   23.2130000   22.6640000  
H 14.4250000   22.2280000   27.0710000  
H 16.0050000   20.2110000   25.4560000  
H 11.9050000   23.3570000   25.0990000  
