76
111 
C 14.9090000   17.5980000   14.6750000  
C 13.5120000   17.2070000   14.5570000  
C 12.8580000   16.7120000   15.6650000  
C 13.4560000   16.4910000   16.9200000  
C 14.8300000   16.7420000   17.0620000  
C 15.5510000   17.1970000   15.9910000  
C 11.5010000   16.3480000   15.8100000  
C 11.3890000   15.9260000   17.1490000  
N 12.5980000   16.1140000   17.8240000  
O  9.2060000   15.1610000   16.8190000  
C 10.1680000   15.3860000   17.6770000  
O  9.9970000   15.0830000   18.8450000  
O 16.9140000   17.4760000   16.0540000  
O 15.4350000   18.1690000   13.7020000  
H 13.0090000   17.6820000   13.7480000  
H 10.8280000   16.2420000   15.0370000  
H  9.5300000   15.4550000   15.9610000  
H 17.2750000   17.1190000   16.8440000  
C 15.4280000   16.6620000   18.4420000  
C 16.3900000   15.6520000   18.7320000  
C 16.9630000   15.5850000   20.0340000  
C 16.5800000   16.3930000   21.0580000  
C 15.6000000   17.3570000   20.8180000  
C 15.0950000   17.4870000   19.4910000  
C 17.1560000   14.6780000   17.9230000  
C 18.1700000   14.1520000   18.7710000  
N 18.0420000   14.7000000   20.0490000  
O 19.0400000   12.6240000   17.1340000  
C 19.1290000   13.0570000   18.4040000  
O 19.9610000   12.5010000   19.1380000  
O 15.2310000   18.3320000   21.7710000  
O 14.2710000   18.5470000   19.2900000  
H 16.9500000   14.3310000   16.9150000  
H 18.2420000   13.0910000   16.8660000  
H 18.4450000   14.4160000   20.9080000  
H 15.9020000   18.1250000   22.4380000  
H 13.9150000   18.8130000   20.1470000  
C 17.2860000   16.4450000   22.3550000  
C 18.1490000   17.5090000   22.6420000  
C 18.9400000   17.5400000   23.7460000  
C 18.8360000   16.5840000   24.7760000  
C 17.8930000   15.5040000   24.5490000  
C 17.1400000   15.4440000   23.3330000  
C 18.4380000   18.6300000   21.8240000  
C 19.4060000   19.3650000   22.5550000  
N 19.6750000   18.6790000   23.8050000  
O 19.9090000   20.7730000   20.8320000  
C 20.1440000   20.5140000   22.1320000  
O 21.0100000   21.1430000   22.7300000  
O 17.7570000   14.5020000   25.4780000  
O 16.4140000   14.3510000   23.0680000  
H 18.1210000   18.8320000   20.7940000  
H 19.2350000   20.1210000   20.5820000  
H 20.4820000   18.9460000   24.5020000  
H 18.2440000   14.7250000   26.3110000  
H 16.5340000   13.6740000   23.7620000  
C 19.6090000   16.7240000   26.0770000  
C 18.8320000   16.9140000   27.2770000  
C 19.4440000   17.1270000   28.4570000  
C 20.8090000   17.1820000   28.5890000  
C 21.5640000   16.9850000   27.4460000  
C 21.0030000   16.7300000   26.2040000  
C 17.4440000   16.9690000   27.5250000  
C 17.2770000   17.4100000   28.8660000  
N 18.5390000   17.5640000   29.3560000  
O 14.9220000   17.1010000   28.9910000  
C 16.0230000   17.4730000   29.6930000  
O 15.9720000   17.8900000   30.8400000  
O 22.9640000   17.0620000   27.6220000  
O 21.7780000   16.5290000   25.0460000  
H 16.5830000   16.6650000   26.9520000  
H 15.2830000   16.9030000   28.0710000  
H 18.7150000   17.6740000   30.3450000  
H 23.4840000   16.7550000   26.7980000  
H 21.2530000   16.3860000   24.2210000  
H 21.3280000   17.3160000   29.6070000  
