76
111 
C 11.8800000   18.4890000   16.7920000  
C 11.5950000   17.3650000   15.8260000  
C 12.2060000   16.1250000   15.9300000  
C 13.1730000   15.8460000   16.9630000  
C 13.6010000   16.9110000   17.8610000  
C 12.9740000   18.1500000   17.7760000  
C 12.0720000   14.9750000   15.1800000  
C 12.9900000   14.0470000   15.6710000  
N 13.6970000   14.6020000   16.7800000  
O 12.6750000   12.3470000   13.9440000  
C 13.3050000   12.7200000   15.0700000  
O 14.0740000   11.9150000   15.6630000  
O 13.2110000   19.1610000   18.6870000  
O 11.4200000   19.6300000   16.6560000  
H 10.9980000   17.6250000   14.9990000  
H 11.5840000   14.9130000   14.1910000  
H 12.0610000   13.0800000   13.8130000  
H 13.7960000   18.7070000   19.3010000  
C 14.6650000   16.7250000   18.9030000  
C 15.8630000   17.4600000   19.0000000  
C 16.8180000   17.2590000   19.9900000  
C 16.6870000   16.2610000   20.9690000  
C 15.4450000   15.5430000   20.9790000  
C 14.4440000   15.8060000   19.9770000  
C 16.3750000   18.4880000   18.1870000  
C 17.5950000   18.8980000   18.7860000  
N 17.8700000   18.1090000   19.9150000  
O 18.3710000   20.1140000   16.9340000  
C 18.6380000   19.8340000   18.2060000  
O 19.7110000   20.0590000   18.7330000  
O 15.2010000   14.6630000   21.9440000  
O 13.2330000   15.1810000   20.0190000  
H 16.1060000   18.9070000   17.2150000  
H 17.4150000   19.8750000   17.0170000  
H 18.7460000   18.1150000   20.4280000  
H 15.9330000   14.7720000   22.5730000  
H 13.2090000   14.7960000   20.9190000  
C 17.6690000   16.2170000   22.0540000  
C 17.7360000   17.2980000   22.9360000  
C 18.5650000   17.3360000   23.9820000  
C 19.4520000   16.2880000   24.3850000  
C 19.4330000   15.1420000   23.4980000  
C 18.5190000   15.0510000   22.3970000  
C 17.1280000   18.6140000   22.8670000  
C 17.6660000   19.3110000   23.9060000  
N 18.4950000   18.5150000   24.7110000  
O 16.5080000   21.3820000   23.4600000  
C 17.4250000   20.7000000   24.2030000  
O 18.0700000   21.2670000   24.9870000  
O 20.1640000   14.1020000   23.8040000  
O 18.3930000   13.8400000   21.8110000  
H 16.4660000   19.1060000   22.1260000  
H 16.2060000   20.8590000   22.7000000  
H 18.9840000   18.6940000   25.5490000  
H 20.6120000   14.3120000   24.6490000  
H 19.2330000   13.4230000   22.0450000  
C 20.2820000   16.4140000   25.5830000  
C 19.7820000   16.1320000   26.8960000  
C 20.6400000   15.9600000   27.9300000  
C 22.0520000   16.0760000   27.7920000  
C 22.5350000   16.4880000   26.5610000  
C 21.6900000   16.5640000   25.4240000  
C 18.4640000   15.8360000   27.3330000  
C 18.5600000   15.4990000   28.6850000  
N 19.8750000   15.5530000   29.0230000  
O 16.2110000   15.6220000   29.1410000  
C 17.4280000   15.4030000   29.6490000  
O 17.5720000   15.1240000   30.8340000  
O 23.8640000   16.5120000   26.4110000  
O 22.2980000   16.8290000   24.2050000  
H 17.5060000   15.8820000   26.7610000  
H 16.4150000   15.5690000   28.2020000  
H 20.1870000   15.4570000   29.9590000  
H 23.9700000   17.0130000   25.5650000  
H 21.7110000   17.5040000   23.6870000  
H 22.7400000   15.8370000   28.5830000  
