76
111 
C 12.3920000   15.1450000   15.9780000  
C 11.9680000   16.4770000   15.3640000  
C 12.3620000   17.6410000   15.8410000  
C 13.3280000   17.7360000   16.9070000  
C 13.7690000   16.5140000   17.5860000  
C 13.3250000   15.3080000   17.1800000  
C 12.0800000   18.9850000   15.5090000  
C 12.8990000   19.7390000   16.2990000  
N 13.7470000   18.9710000   17.1410000  
O 11.8360000   21.7060000   15.4180000  
C 12.8560000   21.2290000   16.2720000  
O 13.6110000   21.9300000   16.9490000  
O 13.7530000   14.1770000   17.7840000  
O 12.1240000   14.1290000   15.4000000  
H 11.2090000   16.3660000   14.5520000  
H 11.2760000   19.2780000   14.7840000  
H 11.5880000   20.8990000   14.9030000  
H 14.5000000   14.4140000   18.3700000  
C 14.7480000   16.5940000   18.7240000  
C 14.2290000   16.7900000   20.0190000  
C 15.0430000   16.6590000   21.0910000  
C 16.4240000   16.6470000   20.9810000  
C 16.9900000   16.5780000   19.6320000  
C 16.1250000   16.5070000   18.5260000  
C 12.8890000   16.7840000   20.5830000  
C 12.9960000   16.6850000   21.9410000  
N 14.3480000   16.5700000   22.2290000  
O 10.7420000   17.3330000   22.3490000  
C 11.9220000   16.8980000   22.9020000  
O 12.0880000   16.8420000   24.1070000  
O 18.3710000   16.6380000   19.5410000  
O 16.5600000   16.3660000   17.2570000  
H 11.9440000   16.8330000   20.0150000  
H 10.9810000   17.4880000   21.4070000  
H 14.6890000   16.4350000   23.2010000  
H 18.5940000   17.0640000   20.3310000  
H 17.5390000   16.3580000   17.3200000  
C 17.2620000   16.6640000   22.2240000  
C 18.2240000   15.6250000   22.4370000  
C 18.9430000   15.5910000   23.5760000  
C 18.8420000   16.5390000   24.6860000  
C 17.8680000   17.5340000   24.5330000  
C 17.1440000   17.6700000   23.2710000  
C 18.6670000   14.4350000   21.6480000  
C 19.7860000   13.9590000   22.3740000  
N 19.9540000   14.7100000   23.5200000  
O 20.4090000   12.4090000   20.5510000  
C 20.7410000   12.9030000   21.7720000  
O 21.7240000   12.4530000   22.3510000  
O 17.4840000   18.3210000   25.5920000  
O 16.3360000   18.7480000   23.0440000  
H 18.4320000   14.1410000   20.6630000  
H 19.6460000   12.9120000   20.1950000  
H 20.6720000   14.6110000   24.2180000  
H 17.9350000   18.0610000   26.4210000  
H 15.8030000   18.5470000   22.1960000  
C 19.5370000   16.3650000   25.9800000  
C 20.8350000   16.9040000   26.1740000  
C 21.4310000   16.7270000   27.4100000  
C 20.9170000   15.9390000   28.4390000  
C 19.6380000   15.3840000   28.2630000  
C 18.9220000   15.6850000   27.0770000  
C 21.8410000   17.5470000   25.3390000  
C 22.9200000   17.7760000   26.1460000  
N 22.6770000   17.2460000   27.4280000  
O 24.4600000   18.5330000   24.3580000  
C 24.2320000   18.3180000   25.6860000  
O 25.1200000   18.4360000   26.5030000  
O 19.1230000   14.5380000   29.1690000  
O 17.6870000   15.2320000   26.8670000  
H 21.8830000   17.8640000   24.2840000  
H 23.6280000   18.3890000   23.9150000  
H 23.2870000   17.2600000   28.1500000  
H 18.2360000   14.5320000   28.8680000  
H 17.4380000   15.5460000   25.9670000  
H 21.4180000   15.7620000   29.3360000  
