76
111 
C 18.8410000   10.1910000   24.9980000  
C 19.6180000   10.5670000   26.2100000  
C 19.8100000   11.9510000   26.5160000  
C 19.3850000   12.9550000   25.6390000  
C 18.6960000   12.6250000   24.4380000  
C 18.4400000   11.3140000   24.1530000  
C 20.5500000   12.6570000   27.5050000  
C 20.3740000   14.0080000   27.2170000  
N 19.5970000   14.1970000   26.0860000  
O 21.6990000   14.8700000   29.0520000  
C 20.9800000   15.1670000   27.9860000  
O 20.8930000   16.3070000   27.6620000  
O 17.9570000   10.9070000   22.9100000  
O 18.5060000    9.0900000   24.7650000  
H 19.9760000    9.7940000   26.8220000  
H 21.0720000   12.1390000   28.3130000  
H 21.5370000   13.9560000   29.2450000  
H 17.5370000   11.6950000   22.5340000  
C 18.1850000   13.7560000   23.6090000  
C 18.9960000   14.5590000   22.8470000  
C 18.5670000   15.6970000   22.2610000  
C 17.2190000   15.9880000   22.0890000  
C 16.3690000   15.2270000   22.8300000  
C 16.8240000   14.1000000   23.6370000  
C 20.3890000   14.3740000   22.5600000  
C 20.6490000   15.3910000   21.6950000  
N 19.5130000   16.1460000   21.4250000  
O 22.9150000   14.7470000   21.4190000  
C 21.9470000   15.5420000   20.9990000  
O 22.1640000   16.3450000   20.1060000  
O 15.0650000   15.5490000   22.9830000  
O 15.9240000   13.2770000   24.3170000  
H 20.9480000   13.4640000   22.7220000  
H 22.4980000   14.2900000   22.1600000  
H 19.3560000   16.8690000   20.7790000  
H 14.8680000   16.3070000   22.4650000  
H 15.0830000   13.8070000   24.3630000  
C 16.7820000   17.2150000   21.2850000  
C 15.8970000   17.0400000   20.2110000  
C 15.5290000   18.1540000   19.4870000  
C 15.8310000   19.5270000   19.7150000  
C 16.6990000   19.6590000   20.8500000  
C 17.1630000   18.5320000   21.5910000  
C 15.2790000   15.8640000   19.6930000  
C 14.4660000   16.3310000   18.6180000  
N 14.5990000   17.7390000   18.5320000  
O 13.4830000   14.2070000   18.1280000  
C 13.6020000   15.5090000   17.7340000  
O 12.9650000   15.9700000   16.8180000  
O 17.0890000   20.8530000   21.3440000  
O 17.9010000   18.8290000   22.7110000  
H 15.4840000   14.8410000   19.9550000  
H 14.0630000   14.1340000   18.9520000  
H 14.0490000   18.3490000   17.8760000  
H 16.2940000   21.4380000   21.3890000  
H 18.1400000   17.9860000   23.0890000  
C 15.3330000   20.5720000   18.8130000  
C 14.0700000   21.0720000   19.0290000  
C 13.5410000   22.1630000   18.3270000  
C 14.2450000   22.6930000   17.2220000  
C 15.4780000   22.1110000   16.8500000  
C 16.0140000   21.1070000   17.6500000  
C 13.0700000   20.7170000   20.0770000  
C 11.9770000   21.5660000   19.8900000  
N 12.2900000   22.4120000   18.7750000  
O 10.6920000   20.7830000   21.7920000  
C 10.7540000   21.6070000   20.7100000  
O  9.7480000   22.2570000   20.4700000  
O 16.0770000   22.5380000   15.7210000  
O 17.2170000   20.5420000   17.3730000  
H 13.2880000   19.9550000   20.8180000  
H 11.6410000   20.4760000   21.8690000  
H 11.6900000   23.0850000   18.3840000  
H 16.6100000   21.8120000   15.3130000  
H 17.4640000   20.0540000   18.2180000  
H 13.7500000   23.4910000   16.6770000  
