76
111 
C 11.2110000   21.8830000   22.5500000  
C 10.5970000   21.5140000   23.8270000  
C 11.2290000   20.5440000   24.5710000  
C 12.3060000   19.7820000   24.1010000  
C 12.9200000   20.0900000   22.8500000  
C 12.4210000   21.1160000   22.0970000  
C 10.9060000   19.8220000   25.7470000  
C 11.8970000   18.8260000   25.9390000  
N 12.6950000   18.7450000   24.8280000  
O 10.8670000   18.2380000   27.9070000  
C 11.7840000   17.8540000   27.0250000  
O 12.4310000   16.8090000   27.0390000  
O 12.9620000   21.5790000   20.9340000  
O 10.5820000   22.7420000   21.9050000  
H  9.6750000   21.9690000   24.2180000  
H 10.1510000   20.0330000   26.4320000  
H 10.5660000   18.9990000   27.4550000  
H 13.7430000   21.0700000   20.7280000  
C 14.0920000   19.3390000   22.4180000  
C 13.9820000   17.9910000   22.0270000  
C 15.1080000   17.2310000   21.7410000  
C 16.4350000   17.7040000   21.7290000  
C 16.5590000   19.1470000   22.0580000  
C 15.3890000   19.9160000   22.3600000  
C 12.7880000   17.1410000   21.9770000  
C 13.2580000   15.8220000   21.8760000  
N 14.6280000   15.9440000   21.5130000  
O 11.2560000   14.6740000   22.2360000  
C 12.5450000   14.5640000   21.8980000  
O 13.0020000   13.5000000   21.5140000  
O 17.7890000   19.6270000   22.4150000  
O 15.6530000   21.2500000   22.7520000  
H 11.7990000   17.4790000   22.2360000  
H 11.0930000   15.6010000   22.3910000  
H 15.2680000   15.1610000   21.3280000  
H 18.3270000   18.7950000   22.3490000  
H 16.5980000   21.2040000   23.0320000  
C 17.5960000   16.7680000   21.6040000  
C 17.9100000   15.9820000   20.4350000  
C 18.9490000   15.1050000   20.4500000  
C 19.7670000   14.7760000   21.4770000  
C 19.5720000   15.5990000   22.6700000  
C 18.4620000   16.5340000   22.7060000  
C 17.4200000   15.9760000   19.1220000  
C 18.1420000   15.0630000   18.3780000  
N 19.0610000   14.4690000   19.2590000  
O 17.0140000   15.5500000   16.3400000  
C 18.0250000   14.8260000   16.9280000  
O 18.8160000   14.1380000   16.3230000  
O 20.5240000   15.6710000   23.6670000  
O 18.3020000   17.1950000   23.8940000  
H 16.5550000   16.4890000   18.6940000  
H 16.6020000   16.0270000   17.0740000  
H 19.7590000   13.7350000   19.0140000  
H 21.2580000   15.0760000   23.3880000  
H 17.3900000   17.3330000   24.0420000  
C 21.0170000   13.9350000   21.2770000  
C 22.1560000   14.3710000   20.5300000  
C 23.1410000   13.4320000   20.2710000  
C 23.2540000   12.1700000   20.7850000  
C 22.2110000   11.7530000   21.6610000  
C 21.0800000   12.6020000   21.8470000  
C 22.5030000   15.6340000   19.8840000  
C 23.6790000   15.3670000   19.1850000  
N 24.1470000   14.0860000   19.5650000  
O 23.8770000   17.3920000   17.9820000  
C 24.4350000   16.2310000   18.2270000  
O 25.4490000   15.9460000   17.6720000  
O 22.2880000   10.5370000   22.2430000  
O 20.1070000   12.2980000   22.7170000  
H 21.8160000   16.4860000   19.7930000  
H 23.0660000   17.4960000   18.4770000  
H 24.9700000   13.5450000   19.2750000  
H 21.5670000   10.4690000   22.8350000  
H 19.4850000   13.0010000   22.7780000  
H 24.1010000   11.5300000   20.6230000  
