76
111 
C 19.2960000    9.5880000   20.3700000  
C 20.6240000    9.7730000   21.0160000  
C 21.0420000   11.0270000   21.4220000  
C 20.2510000   12.2010000   21.3040000  
C 18.9050000   12.0290000   20.7470000  
C 18.4530000   10.7940000   20.3890000  
C 22.2170000   11.4940000   21.9740000  
C 22.1190000   12.8810000   22.0260000  
N 20.8740000   13.2920000   21.6490000  
O 24.2720000   13.3920000   22.7970000  
C 23.1260000   13.9210000   22.4290000  
O 23.0190000   15.0990000   22.4360000  
O 17.2260000   10.5940000   19.9220000  
O 18.9080000    8.5910000   19.8440000  
H 21.1370000    8.7990000   21.0300000  
H 23.1470000   10.8870000   22.1410000  
H 24.1140000   12.4570000   22.6690000  
H 16.8730000   11.4450000   19.6800000  
C 18.0040000   13.1840000   20.7760000  
C 17.9220000   14.0820000   19.7030000  
C 17.2440000   15.2410000   19.8950000  
C 16.5630000   15.6410000   21.0440000  
C 16.5850000   14.6780000   22.0940000  
C 17.2050000   13.4210000   21.9350000  
C 18.7210000   14.1360000   18.5940000  
C 18.5350000   15.4410000   18.0780000  
N 17.6030000   16.0840000   18.9000000  
O 20.1670000   15.1180000   16.4010000  
C 19.2900000   15.9850000   16.9200000  
O 19.0620000   17.0700000   16.3920000  
O 16.1870000   15.0910000   23.2520000  
O 17.3230000   12.6100000   23.0090000  
H 19.3490000   13.3620000   18.1690000  
H 20.0590000   14.2580000   16.7630000  
H 17.3270000   17.0630000   18.8230000  
H 15.8340000   16.0150000   23.1280000  
H 17.2080000   13.2070000   23.8130000  
C 15.9690000   17.0440000   21.1890000  
C 14.6360000   17.2940000   21.5360000  
C 14.1810000   18.5700000   21.7720000  
C 14.9620000   19.7120000   21.7810000  
C 16.3160000   19.4980000   21.3760000  
C 16.8180000   18.2250000   21.1110000  
C 13.6030000   16.4400000   22.0460000  
C 12.5100000   17.2500000   22.4840000  
N 12.9480000   18.6010000   22.3300000  
O 10.9640000   15.5060000   23.0790000  
C 11.2520000   16.8630000   23.1140000  
O 10.5360000   17.6770000   23.6740000  
O 17.1330000   20.5760000   21.1850000  
O 18.1800000   18.0760000   20.9180000  
H 13.7330000   15.3820000   22.1040000  
H 11.6990000   15.0820000   22.6360000  
H 12.4380000   19.3970000   22.6860000  
H 16.6980000   21.3330000   21.6920000  
H 18.5300000   17.1810000   21.0650000  
C 14.3840000   20.9950000   22.2540000  
C 14.8340000   21.5430000   23.4520000  
C 14.2810000   22.6970000   23.9220000  
C 13.2710000   23.3290000   23.2430000  
C 12.7460000   22.8380000   22.0850000  
C 13.4000000   21.7090000   21.5150000  
C 15.8410000   21.1430000   24.4130000  
C 15.9720000   22.1430000   25.3460000  
N 14.9980000   23.1270000   25.0620000  
O 17.8700000   21.1840000   26.4630000  
C 16.9840000   22.2210000   26.4240000  
O 16.9280000   23.0440000   27.2990000  
O 11.6430000   23.3560000   21.5110000  
O 13.1490000   21.3790000   20.2470000  
H 16.2760000   20.1830000   24.4340000  
H 17.7180000   20.5640000   25.7140000  
H 14.8210000   23.9120000   25.6400000  
H 11.5840000   22.9650000   20.6570000  
H 13.7690000   20.7230000   19.8360000  
H 12.9050000   24.2710000   23.7410000  
