76
111 
C 22.4640000   12.9440000   24.6150000  
C 22.7640000   11.6850000   23.7840000  
C 22.0270000   11.4390000   22.6290000  
C 21.0440000   12.3040000   22.1730000  
C 20.7840000   13.5660000   22.9000000  
C 21.4650000   13.8620000   24.0110000  
C 22.1460000   10.3800000   21.7210000  
C 21.1120000   10.5930000   20.8510000  
N 20.4510000   11.8380000   21.1060000  
O 21.7570000    8.8860000   19.3220000  
C 20.8390000    9.8360000   19.6060000  
O 19.9990000   10.0430000   18.8160000  
O 21.1340000   14.8890000   24.7740000  
O 23.0050000   13.0760000   25.7450000  
H 23.4410000   11.0020000   24.1500000  
H 22.7790000    9.5510000   21.9680000  
H 22.4130000    8.8460000   19.9990000  
H 20.4020000   15.2500000   24.3220000  
C 19.7220000   14.4560000   22.3600000  
C 18.3970000   14.4770000   22.9540000  
C 17.4200000   15.2280000   22.4660000  
C 17.6120000   16.1470000   21.3700000  
C 18.9870000   16.2130000   20.8220000  
C 19.9510000   15.3410000   21.2840000  
C 17.7990000   13.6000000   23.9790000  
C 16.4610000   13.8590000   23.9560000  
N 16.1890000   14.8850000   23.0220000  
O 15.8640000   12.0660000   25.4550000  
C 15.4150000   13.0720000   24.7280000  
O 14.1970000   13.2360000   24.5770000  
O 19.2450000   17.0510000   19.7920000  
O 21.2160000   15.4740000   20.8230000  
H 18.2490000   12.7090000   24.3800000  
H 16.8440000   12.1580000   25.5100000  
H 15.2520000   15.2680000   22.9360000  
H 18.3810000   17.3820000   19.5030000  
H 21.2330000   16.1070000   20.0970000  
C 16.5960000   17.2200000   21.0280000  
C 15.9880000   17.9650000   22.0610000  
C 15.0880000   18.9100000   21.8200000  
C 14.3670000   19.0190000   20.5830000  
C 14.9870000   18.2850000   19.5260000  
C 16.0510000   17.4580000   19.7910000  
C 16.2560000   18.0360000   23.4950000  
C 15.3750000   18.9800000   24.0590000  
N 14.5900000   19.4400000   22.9940000  
O 16.1920000   18.7110000   26.2220000  
C 15.2460000   19.3100000   25.4920000  
O 14.4420000   20.0700000   25.9910000  
O 14.4690000   18.4020000   18.2670000  
O 16.6660000   16.7050000   18.7710000  
H 17.0800000   17.4970000   23.9870000  
H 16.6570000   18.2610000   25.4850000  
H 13.7470000   19.8720000   23.1420000  
H 13.7420000   19.0980000   18.1960000  
H 16.2670000   17.0170000   17.9800000  
C 13.2760000   20.0540000   20.4620000  
C 13.4880000   21.3220000   20.0690000  
C 12.4750000   22.2500000   19.9890000  
C 11.1370000   21.9030000   20.2640000  
C 10.8630000   20.5660000   20.7070000  
C 11.8970000   19.6670000   20.7830000  
C 14.6600000   22.0020000   19.5560000  
C 14.3180000   23.3080000   19.1610000  
N 12.9340000   23.4530000   19.5620000  
O 16.2310000   23.6430000   17.8720000  
C 15.1750000   24.2490000   18.4290000  
O 14.8740000   25.4430000   18.2720000  
O  9.5950000   20.2370000   21.1370000  
O 11.6160000   18.3820000   21.2510000  
H 15.6520000   21.4860000   19.3650000  
H 16.0180000   22.6990000   17.8700000  
H 12.4250000   24.3230000   19.4600000  
H  9.6270000   19.4040000   21.5410000  
H 12.2410000   17.6710000   20.9980000  
H 10.3160000   22.6630000   20.1600000  
