76
111 
C 22.6070000   12.3100000   23.3020000  
C 22.8220000   11.4030000   22.1710000  
C 21.9940000   11.4650000   21.0820000  
C 20.9440000   12.3750000   20.9250000  
C 20.6980000   13.3620000   21.9760000  
C 21.5310000   13.3500000   23.0770000  
C 21.9090000   10.6050000   19.9360000  
C 20.9100000   11.1210000   19.1520000  
N 20.2280000   12.1990000   19.8140000  
O 21.3200000    9.7410000   17.2730000  
C 20.5610000   10.7300000   17.7110000  
O 19.7110000   11.2790000   17.0240000  
O 21.3610000   14.1490000   24.1180000  
O 23.2470000   12.1920000   24.3710000  
H 23.7070000   10.8120000   22.2300000  
H 22.6410000    9.8720000   19.6580000  
H 21.7770000    9.3420000   17.9930000  
H 20.5140000   14.5850000   23.8580000  
C 19.5630000   14.2840000   21.8820000  
C 18.3900000   14.1090000   22.6160000  
C 17.3850000   15.0010000   22.4290000  
C 17.3930000   16.1780000   21.6510000  
C 18.6470000   16.3400000   20.9360000  
C 19.6550000   15.4420000   20.9670000  
C 18.0150000   13.1680000   23.6560000  
C 16.6770000   13.4580000   23.9480000  
N 16.3390000   14.6510000   23.2370000  
O 16.3650000   11.5120000   25.3740000  
C 15.8600000   12.6750000   24.8830000  
O 14.7540000   13.0010000   25.2030000  
O 18.7820000   17.4420000   20.1130000  
O 20.7970000   15.5740000   20.1970000  
H 18.5770000   12.2610000   23.9840000  
H 17.1620000   11.3170000   24.8610000  
H 15.3120000   14.9950000   23.2070000  
H 17.9100000   17.9090000   19.9880000  
H 20.5650000   16.3500000   19.6100000  
C 16.2160000   17.1240000   21.6510000  
C 15.8410000   17.8540000   22.7770000  
C 14.8530000   18.7900000   22.7440000  
C 14.1400000   19.0820000   21.6070000  
C 14.5720000   18.4010000   20.4070000  
C 15.5170000   17.3530000   20.4830000  
C 16.3690000   17.8980000   24.1390000  
C 15.6750000   18.9030000   24.8320000  
N 14.6580000   19.4320000   23.9590000  
O 16.8880000   18.6950000   26.9330000  
C 15.8990000   19.3720000   26.2740000  
O 15.3240000   20.3260000   26.7470000  
O 13.9520000   18.6390000   19.2870000  
O 15.7250000   16.5940000   19.4000000  
H 17.1150000   17.2570000   24.5850000  
H 17.2430000   18.0570000   26.2680000  
H 13.8830000   20.0040000   24.2400000  
H 13.1950000   19.2390000   19.4210000  
H 15.3400000   17.1530000   18.6830000  
C 13.2940000   20.3240000   21.5610000  
C 13.5610000   21.3600000   20.6840000  
C 12.7340000   22.4720000   20.7300000  
C 11.5090000   22.5270000   21.3850000  
C 11.1270000   21.3860000   22.1150000  
C 12.0650000   20.3510000   22.3030000  
C 14.6310000   21.6300000   19.7310000  
C 14.3750000   22.8830000   19.2570000  
N 13.1910000   23.3910000   19.8690000  
O 15.9150000   22.6290000   17.4340000  
C 15.1680000   23.4580000   18.1800000  
O 15.0270000   24.6960000   17.9030000  
O  9.8950000   21.3180000   22.6920000  
O 11.7050000   19.1960000   23.0010000  
H 15.4660000   20.9230000   19.5030000  
H 15.5380000   21.7590000   17.6660000  
H 12.7600000   24.2600000   19.7880000  
H  9.7800000   20.4600000   23.1100000  
H 12.1460000   18.4570000   22.4310000  
H 10.8430000   23.3590000   21.3200000  
