76
111 
C 12.6600000   19.8710000   27.2390000  
C 13.1670000   19.3220000   28.4430000  
C 14.2610000   18.5980000   28.4430000  
C 14.9070000   18.0980000   27.2950000  
C 14.4750000   18.6200000   26.0040000  
C 13.3970000   19.5290000   25.9380000  
C 14.8000000   17.8810000   29.5350000  
C 15.7710000   17.1110000   28.9820000  
N 15.8720000   17.2000000   27.5850000  
O 16.4320000   16.2860000   31.1390000  
C 16.6190000   16.2000000   29.7860000  
O 17.3800000   15.4210000   29.2270000  
O 12.7970000   20.0290000   24.7820000  
O 11.7080000   20.6200000   27.3700000  
H 12.6640000   19.4900000   29.3340000  
H 14.4450000   17.9590000   30.5630000  
H 15.8490000   17.0840000   31.2280000  
H 13.3900000   19.6010000   24.1330000  
C 15.1440000   18.1590000   24.7810000  
C 14.4190000   17.4780000   23.8150000  
C 15.1360000   16.9290000   22.7700000  
C 16.4830000   16.9930000   22.4720000  
C 17.2070000   17.8180000   23.3500000  
C 16.5080000   18.4430000   24.4920000  
C 13.1390000   16.8930000   23.7550000  
C 13.0530000   16.1280000   22.5770000  
N 14.3290000   16.0870000   21.9880000  
O 10.7480000   15.6380000   22.6640000  
C 11.8710000   15.4600000   22.0230000  
O 11.9300000   14.6800000   21.0690000  
O 18.5240000   17.9480000   23.3030000  
O 17.1760000   19.3050000   25.3250000  
H 12.3790000   17.0930000   24.4770000  
H 10.9830000   16.1800000   23.4430000  
H 14.6800000   15.5960000   21.2300000  
H 18.8620000   17.2340000   22.7480000  
H 18.1340000   19.2420000   25.2040000  
C 17.1300000   16.3020000   21.2640000  
C 17.5870000   17.0710000   20.1660000  
C 18.1450000   16.4590000   19.0420000  
C 18.5410000   15.1280000   18.9850000  
C 18.2640000   14.3660000   20.1570000  
C 17.5430000   14.9140000   21.2440000  
C 17.2900000   18.4450000   19.7370000  
C 17.7990000   18.5410000   18.4380000  
N 18.2490000   17.3060000   17.9820000  
O 17.1080000   20.7820000   18.0650000  
C 17.7860000   19.7070000   17.5670000  
O 18.2670000   19.8030000   16.4480000  
O 18.6150000   13.0360000   20.2370000  
O 17.2110000   14.1110000   22.2870000  
H 16.9900000   19.2440000   20.3790000  
H 17.0510000   20.4700000   18.9650000  
H 18.6520000   17.0480000   17.0490000  
H 19.0120000   12.7250000   19.3630000  
H 16.7250000   14.6110000   22.9670000  
C 18.9930000   14.4730000   17.7310000  
C 20.1780000   14.9550000   17.1280000  
C 20.5550000   14.5370000   15.8610000  
C 19.8010000   13.6720000   15.1490000  
C 18.6970000   13.0850000   15.7630000  
C 18.2790000   13.5020000   17.0320000  
C 21.1500000   15.9050000   17.5760000  
C 22.0580000   15.9900000   16.5100000  
N 21.6900000   15.1200000   15.4670000  
O 23.3880000   17.7360000   17.3090000  
C 23.2720000   16.7800000   16.4150000  
O 24.1610000   16.6130000   15.5940000  
O 17.9950000   12.1630000   15.0360000  
O 17.0550000   13.1050000   17.5090000  
H 21.1570000   16.4860000   18.4940000  
H 22.4860000   17.7320000   17.7290000  
H 22.3220000   14.6730000   14.7930000  
H 17.2720000   11.8150000   15.5890000  
H 16.8930000   13.7000000   18.3040000  
H 20.0590000   13.4000000   14.1340000  
