76
111 
C 18.7520000   11.3620000   26.7090000  
C 18.7810000   12.0490000   27.9520000  
C 18.5750000   13.3870000   27.9550000  
C 18.2860000   14.0880000   26.8360000  
C 18.2590000   13.4950000   25.5590000  
C 18.4750000   12.1490000   25.4910000  
C 18.4690000   14.2140000   29.0760000  
C 18.1410000   15.4810000   28.4910000  
N 18.0410000   15.3790000   27.0520000  
O 17.6480000   16.5100000   30.5310000  
C 17.7830000   16.7040000   29.2300000  
O 17.4750000   17.8130000   28.7640000  
O 18.5210000   11.5050000   24.2780000  
O 19.0200000   10.1460000   26.6780000  
H 18.9250000   11.4830000   28.8750000  
H 18.4820000   13.9630000   30.1140000  
H 17.9060000   15.5450000   30.5960000  
H 18.4540000   12.2110000   23.5680000  
C 17.9850000   14.3070000   24.3890000  
C 19.0530000   14.9250000   23.6750000  
C 18.7300000   15.6350000   22.5900000  
C 17.4320000   15.9580000   22.0910000  
C 16.4260000   15.1220000   22.6200000  
C 16.7380000   14.3470000   23.7590000  
C 20.5030000   14.8760000   23.8660000  
C 20.9450000   15.6630000   22.8450000  
N 19.8660000   16.1180000   22.0140000  
O 23.1960000   15.5920000   23.3620000  
C 22.2810000   16.1030000   22.5340000  
O 22.5820000   16.8530000   21.6550000  
O 15.2140000   15.1520000   22.0330000  
O 15.7170000   13.5640000   24.2500000  
H 21.0490000   14.6390000   24.7640000  
H 22.6400000   15.0050000   23.9060000  
H 19.8880000   16.8420000   21.3190000  
H 15.3240000   15.7620000   21.2410000  
H 14.9280000   13.9770000   23.9270000  
C 17.1820000   16.9980000   21.0480000  
C 16.6160000   16.6110000   19.7830000  
C 16.1550000   17.6400000   18.9680000  
C 16.3950000   19.0060000   19.0660000  
C 16.9570000   19.3730000   20.3340000  
C 17.3260000   18.4260000   21.2790000  
C 16.4360000   15.3290000   19.0870000  
C 15.6410000   15.6800000   17.9230000  
N 15.7180000   17.0980000   17.7640000  
O 15.2630000   13.4800000   17.1810000  
C 15.0060000   14.7880000   16.9980000  
O 14.1860000   15.2160000   16.1540000  
O 17.1230000   20.7250000   20.6370000  
O 17.6700000   18.8660000   22.4830000  
H 16.8020000   14.3780000   19.3640000  
H 16.0880000   13.5340000   17.6910000  
H 15.3690000   17.6010000   17.0010000  
H 16.3550000   21.1910000   20.2620000  
H 18.1150000   18.1760000   23.0130000  
C 15.9070000   20.0520000   18.1080000  
C 14.5340000   20.1620000   17.8710000  
C 14.0270000   21.1010000   17.0110000  
C 14.8150000   21.9450000   16.2030000  
C 16.2490000   21.9090000   16.3740000  
C 16.7730000   21.0410000   17.4190000  
C 13.3800000   19.5150000   18.4620000  
C 12.2390000   19.9040000   17.7040000  
N 12.6370000   20.9300000   16.8740000  
O 10.7180000   18.3500000   18.8000000  
C 10.8880000   19.3650000   17.8930000  
O  9.9790000   19.7830000   17.1880000  
O 17.0400000   22.5490000   15.5050000  
O 18.1220000   20.9230000   17.5040000  
H 13.4580000   18.8050000   19.2720000  
H 11.6010000   18.1480000   19.1150000  
H 12.0730000   21.4110000   16.1560000  
H 17.8420000   22.4670000   15.9300000  
H 18.2910000   20.0730000   17.9410000  
H 14.3130000   22.5890000   15.4910000  
