76
111 
C 16.5640000   18.7820000   28.7000000  
C 17.0910000   17.7190000   29.5690000  
C 17.3470000   16.4610000   29.1350000  
C 17.2660000   16.0960000   27.7880000  
C 16.7950000   17.0690000   26.8410000  
C 16.3540000   18.2810000   27.2790000  
C 17.7630000   15.3690000   29.8850000  
C 17.9700000   14.4080000   28.9050000  
N 17.6260000   14.8610000   27.6110000  
O 18.7420000   12.7340000   30.5040000  
C 18.4970000   13.0520000   29.2010000  
O 18.6930000   12.2000000   28.3320000  
O 15.7310000   19.1030000   26.4490000  
O 16.2590000   19.9240000   29.0990000  
H 17.2280000   18.0240000   30.5770000  
H 17.8830000   15.3650000   30.9930000  
H 18.5810000   13.4900000   31.0900000  
H 15.9140000   18.7610000   25.4980000  
C 16.8210000   16.7210000   25.4220000  
C 15.6560000   16.3870000   24.6410000  
C 15.6850000   16.2920000   23.3030000  
C 16.9160000   16.3840000   22.5510000  
C 18.1210000   16.6830000   23.2770000  
C 18.1020000   16.7550000   24.6950000  
C 14.2300000   16.2680000   24.9480000  
C 13.5980000   15.9230000   23.7260000  
N 14.4850000   15.9890000   22.6590000  
O 11.5070000   15.2860000   24.6450000  
C 12.2900000   15.3240000   23.5540000  
O 11.9140000   14.6270000   22.5800000  
O 19.3380000   16.7760000   22.5860000  
O 19.2150000   17.0780000   25.3850000  
H 13.7230000   16.3110000   25.9070000  
H 12.1030000   15.8260000   25.2150000  
H 14.2830000   15.8580000   21.6520000  
H 19.2210000   16.2850000   21.6510000  
H 19.9840000   16.9850000   24.7810000  
C 16.8780000   16.3210000   21.0540000  
C 17.1730000   17.5320000   20.3260000  
C 17.1220000   17.4860000   18.9390000  
C 16.6270000   16.3660000   18.2110000  
C 16.3290000   15.2110000   18.9330000  
C 16.4440000   15.1650000   20.3560000  
C 17.6670000   18.9050000   20.6710000  
C 18.0660000   19.4600000   19.4630000  
N 17.7260000   18.5950000   18.3900000  
O 18.8940000   21.4030000   20.4710000  
C 18.7400000   20.7350000   19.3150000  
O 19.0700000   21.2650000   18.2070000  
O 16.0870000   14.0730000   18.3080000  
O 16.2530000   13.9770000   21.0180000  
H 17.9430000   19.3360000   21.6050000  
H 18.4950000   20.8210000   21.1330000  
H 17.9610000   18.7670000   17.4170000  
H 16.3900000   14.0940000   17.3830000  
H 16.4600000   14.0700000   21.9720000  
C 16.3130000   16.4870000   16.7620000  
C 17.3160000   16.8170000   15.7870000  
C 17.0570000   16.9730000   14.4930000  
C 15.8010000   16.6890000   13.9760000  
C 14.7830000   16.3060000   14.8970000  
C 14.9730000   16.3160000   16.2920000  
C 18.7550000   17.0700000   15.8960000  
C 19.2980000   17.4330000   14.6540000  
N 18.1760000   17.3610000   13.7950000  
O 21.4330000   17.9710000   15.3930000  
C 20.6780000   17.7760000   14.3600000  
O 21.0690000   18.0200000   13.2350000  
O 13.6020000   15.9080000   14.3850000  
O 13.9530000   16.0250000   17.1100000  
H 19.4320000   16.9030000   16.7650000  
H 20.7670000   17.9300000   16.0830000  
H 18.2350000   17.7040000   12.8240000  
H 13.0560000   15.3740000   15.0520000  
H 14.2640000   15.9520000   18.0620000  
H 15.6230000   16.7470000   12.8520000  
