76
111 
C 19.0210000   15.1470000   14.9360000  
C 18.0110000   14.3130000   14.2350000  
C 16.9740000   13.7960000   14.9640000  
C 16.7710000   14.0560000   16.3440000  
C 17.7020000   14.8730000   17.0550000  
C 18.7950000   15.4210000   16.3710000  
C 15.8480000   13.1360000   14.5220000  
C 14.9900000   12.9960000   15.6660000  
N 15.6160000   13.5520000   16.8080000  
O 13.3580000   11.9070000   14.4250000  
C 13.6940000   12.3510000   15.6250000  
O 12.9080000   12.1490000   16.4990000  
O 19.7300000   16.1120000   16.9750000  
O 19.9520000   15.5970000   14.3290000  
H 18.2430000   14.0100000   13.2010000  
H 15.6120000   12.8240000   13.5340000  
H 13.9610000   12.3240000   13.7840000  
H 19.4970000   16.0690000   17.8960000  
C 17.3710000   15.3260000   18.4220000  
C 17.6370000   14.4350000   19.4390000  
C 17.3920000   14.8330000   20.7690000  
C 16.9770000   16.1180000   21.1690000  
C 16.6040000   16.9910000   20.0610000  
C 16.8580000   16.5630000   18.7310000  
C 18.2940000   13.1570000   19.5710000  
C 18.1840000   12.8020000   20.9510000  
N 17.8070000   13.9180000   21.6890000  
O 18.7500000   10.5580000   20.7060000  
C 18.3510000   11.5030000   21.5610000  
O 18.1880000   11.2950000   22.7670000  
O 16.1290000   18.1760000   20.3010000  
O 16.4410000   17.3400000   17.6680000  
H 18.3690000   12.4330000   18.7160000  
H 18.6950000   10.9530000   19.8530000  
H 17.6280000   13.8790000   22.6660000  
H 15.9820000   18.3320000   21.2660000  
H 16.3810000   18.3130000   17.9580000  
C 16.8070000   16.5810000   22.6140000  
C 17.6320000   17.6710000   23.0830000  
C 17.3850000   18.1320000   24.3230000  
C 16.5460000   17.6240000   25.3180000  
C 15.7680000   16.4820000   24.9320000  
C 15.9410000   15.9820000   23.5370000  
C 18.6130000   18.4860000   22.4030000  
C 18.9450000   19.5240000   23.3340000  
N 18.1590000   19.2220000   24.5920000  
O 20.4940000   20.6170000   21.9140000  
C 19.8400000   20.6670000   23.0870000  
O 20.0810000   21.5080000   23.9490000  
O 14.8200000   15.9670000   25.6720000  
O 15.3730000   14.7710000   23.1920000  
H 18.9150000   18.5540000   21.3610000  
H 20.2940000   19.7160000   21.5650000  
H 18.1620000   19.8060000   25.4650000  
H 14.8550000   16.5640000   26.4530000  
H 14.8740000   14.4840000   24.0220000  
C 16.3190000   18.3780000   26.5970000  
C 15.9880000   19.7530000   26.6400000  
C 15.6800000   20.3400000   27.7980000  
C 15.9400000   19.7530000   29.0310000  
C 16.5260000   18.4590000   29.0550000  
C 16.7080000   17.7760000   27.8620000  
C 15.8020000   20.7840000   25.6120000  
C 15.3370000   21.8970000   26.3070000  
N 15.2640000   21.6070000   27.6650000  
O 15.4650000   23.1690000   24.4120000  
C 14.9950000   23.1590000   25.6570000  
O 14.4640000   24.0550000   26.2510000  
O 16.8450000   17.9240000   30.2500000  
O 17.3120000   16.5720000   27.9600000  
H 16.0740000   20.6360000   24.5600000  
H 15.9450000   22.4170000   24.1690000  
H 15.0540000   22.2610000   28.4110000  
H 17.4600000   17.1710000   30.0010000  
H 17.2330000   16.1110000   27.0790000  
H 15.8140000   20.3480000   29.9050000  
