76
111 
C 12.6710000   18.8240000   27.2510000  
C 11.2160000   19.1360000   26.7950000  
C 10.9290000   18.9860000   25.4640000  
C 11.8440000   18.5770000   24.5340000  
C 13.2650000   18.2090000   24.8450000  
C 13.6310000   18.3950000   26.1640000  
C  9.8070000   19.4260000   24.7240000  
C 10.1700000   19.3390000   23.3670000  
N 11.4480000   18.8060000   23.2930000  
O  7.9730000   19.9430000   22.5020000  
C  9.3280000   19.6360000   22.2370000  
O  9.8180000   19.5670000   21.1260000  
O 14.9060000   18.1110000   26.6640000  
O 12.9870000   18.8710000   28.4180000  
H 10.5580000   19.3870000   27.5840000  
H  8.9690000   19.8940000   25.1750000  
H  7.8060000   19.6980000   23.4160000  
H 15.4050000   17.9280000   25.8290000  
C 14.2870000   17.8780000   23.8500000  
C 15.4100000   18.6990000   23.7250000  
C 16.4160000   18.3350000   22.8810000  
C 16.4370000   17.1580000   22.1210000  
C 15.3120000   16.3640000   22.2750000  
C 14.2120000   16.6530000   23.1700000  
C 15.6440000   20.0560000   24.1510000  
C 16.7970000   20.4570000   23.4900000  
N 17.3280000   19.3620000   22.7960000  
O 16.7590000   22.6540000   24.4180000  
C 17.4670000   21.8020000   23.6640000  
O 18.5580000   22.1150000   23.1850000  
O 15.3200000   15.1820000   21.5640000  
O 13.2690000   15.7320000   23.3830000  
H 15.0930000   20.7750000   24.8050000  
H 15.9620000   22.0890000   24.5880000  
H 18.2400000   19.3310000   22.3210000  
H 16.1020000   15.0940000   20.9990000  
H 13.6150000   14.9850000   22.8820000  
C 17.6530000   16.7330000   21.3750000  
C 18.3370000   15.5420000   21.7240000  
C 19.4320000   15.0930000   21.0220000  
C 19.8820000   15.7620000   19.8910000  
C 19.2750000   16.9870000   19.4890000  
C 18.1880000   17.5180000   20.2660000  
C 18.1490000   14.5650000   22.7700000  
C 19.1660000   13.6280000   22.6370000  
N 19.9750000   13.9370000   21.5060000  
O 18.5670000   12.4140000   24.5530000  
C 19.4750000   12.5450000   23.5650000  
O 20.5070000   11.7770000   23.5400000  
O 19.7660000   17.6110000   18.3930000  
O 17.5330000   18.5540000   19.7790000  
H 17.3300000   14.6550000   23.5120000  
H 18.0390000   13.2080000   24.3670000  
H 20.7230000   13.3260000   21.1620000  
H 20.5930000   17.1320000   18.0560000  
H 17.9680000   18.7350000   18.9260000  
C 21.0970000   15.1720000   19.1640000  
C 20.7850000   14.4160000   17.9730000  
C 21.7960000   13.8090000   17.2960000  
C 23.1830000   13.8760000   17.6900000  
C 23.4550000   14.7210000   18.7730000  
C 22.4560000   15.4160000   19.4520000  
C 19.5930000   14.1340000   17.1640000  
C 19.9550000   13.1060000   16.2410000  
N 21.3530000   13.0580000   16.2360000  
O 17.7000000   12.3070000   15.7930000  
C 19.0080000   12.3420000   15.3880000  
O 19.2860000   11.7010000   14.4460000  
O 24.7560000   14.9510000   19.0660000  
O 22.7680000   16.2860000   20.4500000  
H 18.5740000   14.5660000   17.3010000  
H 17.5360000   12.8610000   16.5930000  
H 21.8620000   12.5250000   15.5620000  
H 24.8110000   15.6410000   19.7480000  
H 22.0160000   16.7820000   20.7250000  
H 23.8790000   13.2810000   17.1250000  
