76
111 
C 20.5520000   12.9960000   16.4900000  
C 19.7880000   11.7680000   16.2290000  
C 18.7770000   11.3960000   17.0290000  
C 18.3900000   12.0770000   18.1930000  
C 19.0140000   13.3390000   18.4970000  
C 20.0940000   13.8080000   17.7120000  
C 17.7690000   10.3860000   16.9680000  
C 16.9490000   10.4620000   18.0840000  
N 17.3710000   11.5200000   18.8940000  
O 15.4460000    8.9060000   17.2540000  
C 15.8030000    9.5750000   18.3200000  
O 15.1760000    9.6350000   19.4040000  
O 20.7110000   15.0180000   17.7510000  
O 21.4560000   13.3550000   15.7710000  
H 20.0650000   11.3510000   15.2810000  
H 17.6010000    9.7760000   16.1030000  
H 16.0800000    9.2370000   16.6220000  
H 20.3010000   15.5750000   18.4480000  
C 18.4360000   14.1750000   19.5510000  
C 19.2660000   14.6410000   20.6330000  
C 18.7200000   15.4310000   21.6220000  
C 17.4820000   15.9950000   21.6170000  
C 16.6930000   15.6110000   20.4970000  
C 17.1160000   14.7120000   19.4880000  
C 20.5970000   14.4210000   20.9150000  
C 20.8640000   15.0140000   22.1080000  
N 19.7240000   15.8100000   22.5030000  
O 22.8590000   13.8810000   22.4930000  
C 22.0630000   14.8890000   22.9180000  
O 22.4120000   15.6580000   23.8230000  
O 15.3890000   16.0980000   20.4150000  
O 16.2530000   14.3730000   18.4910000  
H 21.2370000   13.6860000   20.4630000  
H 22.3200000   13.4400000   21.8470000  
H 19.6830000   16.3490000   23.3210000  
H 15.2150000   16.6480000   21.1890000  
H 15.4110000   14.8450000   18.5210000  
C 17.0050000   17.0820000   22.5960000  
C 16.8270000   18.4450000   22.1570000  
C 16.3760000   19.4130000   23.0250000  
C 16.2000000   19.2820000   24.3980000  
C 16.5710000   17.9500000   24.9170000  
C 16.8700000   16.8340000   24.0450000  
C 16.7570000   19.0090000   20.8960000  
C 16.1820000   20.2880000   21.0470000  
N 16.1460000   20.6070000   22.3760000  
O 16.0380000   20.7330000   18.6940000  
C 15.7070000   21.1480000   19.9200000  
O 15.0700000   22.2140000   20.0870000  
O 16.4770000   17.6660000   26.2670000  
O 16.9400000   15.5870000   24.5480000  
H 17.0590000   18.6270000   19.9710000  
H 16.6200000   19.9680000   18.7670000  
H 15.7660000   21.5250000   22.7840000  
H 16.3180000   18.5760000   26.6080000  
H 16.6070000   15.0100000   23.8310000  
C 15.7190000   20.3760000   25.2340000  
C 14.3420000   20.7580000   25.0770000  
C 13.6920000   21.4700000   26.0420000  
C 14.3810000   22.0670000   27.1440000  
C 15.7750000   21.8740000   27.2120000  
C 16.4370000   20.9790000   26.3140000  
C 13.2940000   20.2020000   24.2210000  
C 12.0790000   20.5990000   24.7500000  
N 12.3200000   21.4940000   25.7800000  
O 10.9690000   19.6500000   22.8640000  
C 10.7880000   20.2710000   24.0720000  
O  9.7300000   20.7020000   24.4720000  
O 16.5280000   22.6740000   28.1240000  
O 17.7850000   20.7240000   26.3750000  
H 13.5030000   19.6160000   23.3530000  
H 11.9060000   19.5100000   22.7240000  
H 11.6350000   21.9110000   26.3450000  
H 17.4520000   22.5540000   27.8400000  
H 18.1510000   20.3540000   25.5460000  
H 13.7240000   22.5450000   27.8910000  
