76
111 
C 18.6510000   10.0220000   24.9350000  
C 20.0480000   10.3380000   25.4830000  
C 20.6010000   11.5700000   25.3250000  
C 19.9750000   12.6320000   24.6990000  
C 18.6330000   12.3920000   24.1630000  
C 18.0160000   11.1850000   24.2130000  
C 21.8500000   12.0690000   25.8370000  
C 21.8230000   13.3960000   25.6350000  
N 20.6350000   13.7410000   24.9200000  
O 23.8980000   14.0390000   26.7450000  
C 22.7890000   14.4390000   26.0950000  
O 22.6170000   15.6060000   25.8040000  
O 16.8660000   10.9160000   23.6020000  
O 18.1500000    8.9180000   25.1420000  
H 20.4610000    9.5300000   26.0260000  
H 22.6620000   11.4470000   26.2680000  
H 23.8290000   13.1180000   26.9760000  
H 16.5790000   11.6600000   23.0220000  
C 18.0780000   13.6030000   23.4640000  
C 18.6550000   14.1070000   22.2510000  
C 18.2090000   15.2710000   21.6940000  
C 17.1920000   15.9940000   22.2100000  
C 16.6940000   15.5910000   23.4300000  
C 17.0380000   14.3430000   23.9950000  
C 19.7530000   13.6060000   21.4520000  
C 19.9130000   14.5350000   20.4320000  
N 18.9150000   15.5530000   20.5190000  
O 21.9800000   13.6510000   19.5540000  
C 20.9760000   14.6190000   19.4170000  
O 20.9390000   15.3410000   18.4360000  
O 15.7060000   16.3880000   23.9190000  
O 16.4420000   13.9810000   25.1300000  
H 20.3080000   12.6990000   21.5660000  
H 21.8350000   13.1500000   20.3360000  
H 18.7550000   16.2780000   19.7990000  
H 15.2800000   16.9480000   23.2300000  
H 15.6790000   14.6410000   25.2810000  
C 16.7420000   17.2790000   21.5220000  
C 15.7650000   17.3740000   20.5740000  
C 15.3080000   18.5450000   20.0380000  
C 15.8040000   19.8250000   20.4350000  
C 16.8620000   19.7330000   21.4370000  
C 17.3320000   18.4880000   21.9020000  
C 15.0430000   16.3730000   19.8280000  
C 14.2390000   16.9810000   18.8980000  
N 14.3380000   18.3690000   19.0810000  
O 13.1630000   15.0510000   18.1940000  
C 13.1870000   16.3900000   18.0830000  
O 12.3210000   16.9790000   17.4260000  
O 17.4970000   20.7860000   21.9560000  
O 18.3090000   18.4040000   22.8740000  
H 15.0590000   15.3040000   20.0010000  
H 13.6530000   14.9190000   19.0370000  
H 13.8020000   19.2420000   18.6970000  
H 16.8390000   21.5120000   22.0100000  
H 18.2680000   17.4230000   22.9210000  
C 15.2080000   21.1220000   19.9260000  
C 13.8500000   21.3900000   20.0860000  
C 13.2510000   22.4590000   19.4680000  
C 13.9560000   23.3120000   18.6360000  
C 15.3280000   23.0660000   18.4930000  
C 15.9720000   22.0060000   19.1020000  
C 12.7550000   20.6900000   20.7390000  
C 11.6140000   21.4390000   20.5460000  
N 11.9150000   22.4770000   19.6940000  
O 10.1150000   19.8510000   21.4200000  
C 10.2380000   21.1160000   21.0110000  
O  9.2620000   21.8810000   21.0210000  
O 16.0610000   23.9580000   17.7170000  
O 17.2700000   21.7390000   18.7830000  
H 12.8480000   19.8370000   21.3770000  
H 11.0000000   19.4280000   21.2530000  
H 11.2450000   23.0840000   19.2870000  
H 16.9170000   23.4470000   17.4900000  
H 17.3890000   20.8730000   19.1810000  
H 13.5370000   24.1580000   18.0910000  
