76
111 
C 18.5030000    9.6220000   19.6010000  
C 19.7300000    9.6900000   18.8670000  
C 20.3040000   10.9560000   18.7430000  
C 19.7430000   12.1330000   19.1890000  
C 18.5370000   12.1120000   19.9580000  
C 17.9710000   10.8280000   20.1560000  
C 21.3190000   11.3800000   17.8830000  
C 21.4300000   12.7170000   18.0270000  
N 20.4560000   13.2010000   18.8380000  
O 23.2380000   12.9400000   16.4120000  
C 22.3260000   13.5900000   17.2270000  
O 22.1980000   14.8110000   17.1100000  
O 16.7960000   10.6670000   20.7920000  
O 17.9320000    8.5500000   19.6170000  
H 20.1430000    8.8340000   18.3450000  
H 21.8860000   10.7210000   17.2330000  
H 23.0830000   11.9880000   16.6010000  
H 16.3790000   11.5550000   20.8040000  
C 17.9720000   13.3450000   20.5410000  
C 17.3960000   14.3270000   19.7070000  
C 16.9080000   15.5310000   20.2130000  
C 16.9420000   15.9070000   21.5420000  
C 17.6350000   15.0020000   22.3650000  
C 18.1200000   13.7180000   21.8520000  
C 17.3540000   14.4450000   18.2620000  
C 16.8870000   15.7200000   17.9430000  
N 16.5210000   16.4020000   19.2120000  
O 17.2740000   15.5560000   15.5400000  
C 16.8530000   16.3100000   16.5870000  
O 16.4740000   17.4500000   16.3840000  
O 17.9090000   15.3320000   23.6760000  
O 18.5800000   12.7910000   22.7380000  
H 17.6420000   13.7390000   17.4580000  
H 17.6640000   14.8170000   15.9470000  
H 16.2600000   17.3500000   19.4560000  
H 17.1830000   15.9470000   23.9180000  
H 18.3050000   13.1240000   23.6080000  
C 16.5550000   17.2140000   22.0410000  
C 15.3800000   17.3380000   22.7930000  
C 14.9670000   18.5470000   23.2650000  
C 15.6260000   19.7330000   23.0170000  
C 16.7020000   19.6970000   22.1350000  
C 17.1840000   18.4230000   21.6990000  
C 14.4000000   16.3670000   23.3080000  
C 13.5170000   17.1180000   24.1120000  
N 13.8550000   18.4450000   24.0920000  
O 12.3120000   15.1590000   24.7960000  
C 12.3480000   16.5420000   24.8710000  
O 11.4930000   17.1120000   25.4900000  
O 17.3560000   20.8620000   21.8770000  
O 18.2740000   18.3970000   20.8840000  
H 14.3790000   15.3400000   23.0000000  
H 12.9170000   14.9650000   24.1050000  
H 13.4670000   19.1630000   24.6360000  
H 17.1490000   21.4760000   22.5640000  
H 18.5010000   17.4350000   20.8810000  
C 15.1470000   21.0620000   23.5000000  
C 15.3250000   21.3950000   24.8620000  
C 14.7640000   22.5200000   25.3820000  
C 14.0490000   23.4330000   24.5610000  
C 13.8630000   23.0830000   23.1990000  
C 14.4060000   21.9210000   22.6960000  
C 16.2120000   20.8370000   25.8800000  
C 16.1210000   21.6940000   26.9580000  
N 15.2030000   22.6880000   26.6600000  
O 17.8870000   20.6420000   28.3130000  
C 16.9620000   21.6490000   28.1710000  
O 16.7050000   22.3650000   29.1390000  
O 13.2360000   23.9630000   22.4170000  
O 14.1290000   21.4160000   21.4580000  
H 16.8530000   19.9180000   25.9170000  
H 17.9010000   20.2550000   27.4450000  
H 14.8980000   23.4100000   27.3100000  
H 13.1220000   23.5280000   21.5340000  
H 14.7580000   20.7390000   21.2820000  
H 13.7020000   24.3960000   24.8530000  
