76
111 
C 12.0750000   21.9990000   23.4520000  
C 11.2680000   21.6320000   24.6330000  
C 11.6010000   20.4560000   25.2770000  
C 12.6090000   19.5780000   24.8260000  
C 13.3400000   19.8520000   23.6720000  
C 13.1240000   21.0390000   23.0070000  
C 11.1970000   19.7670000   26.4040000  
C 11.9240000   18.5900000   26.5680000  
N 12.8670000   18.5350000   25.5810000  
O 10.7210000   17.9340000   28.5850000  
C 11.7430000   17.6980000   27.7710000  
O 12.4910000   16.7750000   27.9920000  
O 13.8780000   21.4670000   21.9190000  
O 11.8550000   23.1050000   22.9350000  
H 10.4560000   22.3150000   24.9480000  
H 10.3320000   20.0590000   27.0000000  
H 10.1750000   18.5860000   28.1260000  
H 14.6520000   20.9220000   21.8390000  
C 14.4530000   18.9960000   23.2110000  
C 14.1930000   17.6840000   22.7930000  
C 15.2780000   16.8530000   22.5130000  
C 16.6410000   17.2770000   22.4350000  
C 16.9090000   18.6110000   22.8810000  
C 15.8410000   19.4930000   23.1390000  
C 13.0330000   16.8300000   22.7290000  
C 13.4520000   15.5310000   22.4610000  
N 14.8920000   15.5710000   22.3250000  
O 11.3030000   14.4930000   22.6000000  
C 12.6480000   14.3100000   22.5350000  
O 13.1310000   13.1670000   22.5260000  
O 18.1740000   19.0690000   23.0460000  
O 16.0990000   20.7420000   23.6040000  
H 12.0360000   17.0540000   23.0600000  
H 11.3060000   15.4520000   22.5410000  
H 15.3940000   14.7620000   22.1210000  
H 18.7570000   18.5050000   22.5040000  
H 16.7420000   20.6630000   24.3320000  
C 17.7060000   16.4140000   21.8840000  
C 17.7550000   16.1970000   20.5000000  
C 18.6780000   15.3670000   19.9770000  
C 19.5890000   14.5490000   20.7320000  
C 19.5970000   14.7430000   22.1270000  
C 18.6640000   15.6900000   22.6780000  
C 17.1200000   16.8200000   19.3730000  
C 17.7560000   16.3420000   18.2250000  
N 18.7200000   15.4480000   18.6450000  
O 16.3580000   17.5500000   16.7320000  
C 17.4860000   16.7690000   16.8700000  
O 18.2140000   16.3330000   15.9240000  
O 20.5050000   14.0330000   22.9080000  
O 18.6670000   15.8800000   24.0420000  
H 16.2450000   17.4700000   19.4510000  
H 15.9110000   17.4430000   17.5830000  
H 19.3950000   14.9800000   18.0120000  
H 21.1610000   13.5190000   22.3350000  
H 17.7760000   16.3870000   24.2320000  
C 20.7220000   13.7370000   20.1580000  
C 21.7590000   14.3200000   19.3450000  
C 22.7480000   13.6180000   18.7130000  
C 22.9850000   12.2840000   18.9130000  
C 21.9470000   11.6180000   19.6230000  
C 20.9000000   12.3210000   20.2680000  
C 21.8430000   15.6950000   18.8940000  
C 23.0040000   15.7490000   18.1240000  
N 23.5520000   14.4620000   18.0880000  
O 23.0470000   18.0810000   17.8670000  
C 23.6050000   16.9110000   17.5070000  
O 24.5720000   16.8600000   16.7470000  
O 22.0550000   10.2580000   19.7460000  
O 20.0160000   11.5770000   21.0040000  
H 21.1890000   16.4970000   19.1190000  
H 22.3400000   17.8830000   18.4590000  
H 24.2950000   14.2600000   17.4330000  
H 21.2150000    9.9580000   20.1870000  
H 19.5090000   12.1860000   21.6410000  
H 23.8520000   11.7570000   18.5240000  
