76
111 
C 10.3960000   17.9780000   17.9490000  
C 10.6250000   17.4990000   16.5880000  
C 11.7820000   16.8460000   16.3150000  
C 12.7610000   16.6060000   17.3180000  
C 12.5980000   17.0560000   18.6790000  
C 11.3940000   17.6690000   19.0190000  
C 12.3000000   16.3670000   15.1440000  
C 13.5600000   15.8950000   15.4490000  
N 13.8350000   16.0530000   16.7900000  
O 13.7540000   14.9540000   13.2280000  
C 14.4320000   15.1890000   14.3850000  
O 15.6290000   14.8520000   14.5370000  
O 11.2010000   18.2860000   20.2000000  
O  9.4250000   18.6380000   18.2380000  
H  9.9030000   17.7720000   15.8070000  
H 11.7130000   16.4160000   14.1580000  
H 12.8910000   15.2140000   13.3790000  
H 12.0080000   18.2870000   20.6890000  
C 13.7010000   16.9900000   19.6610000  
C 14.9170000   17.7060000   19.5460000  
C 15.9590000   17.4620000   20.3360000  
C 16.0610000   16.5100000   21.3780000  
C 14.8560000   15.7780000   21.6000000  
C 13.7420000   16.0130000   20.7830000  
C 15.3680000   18.5420000   18.4840000  
C 16.6960000   18.8660000   18.7400000  
N 17.0790000   18.2590000   19.9340000  
O 16.9840000   20.1500000   16.7100000  
C 17.4150000   19.8890000   17.9690000  
O 18.5570000   20.2150000   18.4020000  
O 14.8240000   14.8880000   22.6330000  
O 12.6460000   15.1960000   20.9160000  
H 14.7010000   18.8840000   17.6960000  
H 16.1020000   19.7460000   16.6990000  
H 17.9610000   18.4650000   20.4310000  
H 15.7400000   14.7990000   22.8830000  
H 12.8280000   14.5360000   21.5720000  
C 17.3360000   16.2700000   22.2020000  
C 17.8080000   17.2090000   23.1640000  
C 18.8940000   16.9120000   23.8920000  
C 19.7340000   15.8040000   23.7710000  
C 19.3220000   14.8490000   22.7420000  
C 18.1730000   15.1620000   21.9750000  
C 17.1730000   18.3560000   23.6540000  
C 18.0840000   18.8330000   24.6180000  
N 19.1730000   17.9230000   24.7550000  
O 16.9120000   20.7460000   25.1360000  
C 17.9630000   20.0350000   25.3790000  
O 18.8260000   20.4010000   26.1320000  
O 20.0690000   13.6650000   22.4540000  
O 17.8880000   14.3070000   20.9930000  
H 16.2620000   18.7850000   23.3310000  
H 16.3600000   20.2090000   24.5360000  
H 19.8590000   17.9520000   25.5060000  
H 20.3200000   13.2340000   23.2680000  
H 18.7110000   13.8270000   20.8420000  
C 20.8560000   15.6100000   24.7440000  
C 20.6420000   15.4280000   26.0830000  
C 21.6860000   14.9940000   26.9280000  
C 23.0020000   14.9210000   26.4980000  
C 23.2740000   15.1170000   25.1230000  
C 22.1910000   15.4600000   24.2830000  
C 19.5220000   15.7190000   26.9720000  
C 19.9270000   15.4520000   28.2570000  
N 21.2550000   14.9280000   28.2050000  
O 17.8640000   15.8910000   29.4350000  
C 19.1940000   15.5650000   29.5080000  
O 19.6930000   15.3150000   30.6140000  
O 24.5080000   14.9310000   24.6440000  
O 22.4970000   15.7170000   22.9890000  
H 18.5940000   16.2260000   26.7120000  
H 17.7210000   16.2000000   28.5270000  
H 21.7900000   14.5840000   29.0090000  
H 24.5570000   15.0420000   23.6540000  
H 21.6690000   15.9260000   22.5440000  
H 23.8050000   14.6530000   27.2190000  
