76
111 
C 21.6160000   11.9830000   17.9130000  
C 20.9910000   10.6790000   18.1710000  
C 19.7970000   10.5840000   18.8090000  
C 19.0650000   11.7260000   19.2570000  
C 19.5810000   13.0010000   18.9820000  
C 20.8720000   13.1370000   18.4660000  
C 18.9360000    9.5420000   19.0020000  
C 17.7580000   10.0500000   19.5110000  
N 17.8760000   11.4200000   19.7390000  
O 16.6430000    7.9640000   19.7370000  
C 16.5910000    9.2770000   19.8560000  
O 15.5400000    9.7220000   20.2050000  
O 21.4710000   14.3410000   18.3330000  
O 22.6600000   12.0760000   17.3280000  
H 21.6170000    9.8630000   17.7870000  
H 19.2170000    8.5260000   18.7770000  
H 17.5120000    7.8940000   19.3250000  
H 20.8570000   14.9840000   18.7180000  
C 18.8990000   14.1690000   19.5720000  
C 19.3890000   14.7710000   20.7160000  
C 18.7600000   15.9140000   21.2260000  
C 17.5130000   16.4300000   20.7610000  
C 16.9970000   15.8420000   19.5680000  
C 17.6790000   14.7220000   19.0180000  
C 20.4500000   14.3610000   21.6130000  
C 20.3340000   15.2430000   22.6870000  
N 19.2470000   16.1030000   22.4990000  
O 21.8850000   14.0050000   24.0970000  
C 21.0870000   15.1210000   23.9410000  
O 21.0700000   15.9640000   24.8630000  
O 15.9130000   16.4130000   19.0270000  
O 17.2350000   14.1830000   17.8180000  
H 21.1300000   13.5040000   21.5010000  
H 21.7550000   13.5180000   23.2660000  
H 18.7320000   16.6090000   23.1870000  
H 15.3990000   16.8280000   19.7450000  
H 16.3220000   14.6150000   17.6050000  
C 16.7060000   17.4490000   21.5680000  
C 16.9920000   18.8100000   21.5690000  
C 16.2510000   19.7390000   22.3040000  
C 15.1610000   19.3750000   23.1530000  
C 14.9380000   17.9780000   23.2960000  
C 15.6040000   17.0680000   22.4120000  
C 18.0080000   19.5640000   20.8500000  
C 17.7070000   20.9620000   21.0870000  
N 16.5870000   21.0000000   21.9460000  
O 19.4560000   21.9080000   19.7730000  
C 18.3580000   22.1550000   20.5490000  
O 17.9190000   23.2190000   20.6400000  
O 14.0350000   17.5360000   24.2370000  
O 15.2920000   15.7300000   22.5730000  
H 18.8240000   19.1970000   20.2490000  
H 19.5640000   20.9300000   19.7610000  
H 16.0450000   21.8110000   22.2250000  
H 13.5850000   18.2530000   24.7220000  
H 16.1050000   15.2480000   22.2980000  
C 14.6110000   20.4110000   24.1430000  
C 13.2210000   20.4990000   24.3840000  
C 12.7660000   21.4360000   25.2480000  
C 13.5880000   22.2690000   26.0850000  
C 14.9880000   22.1970000   25.8330000  
C 15.4630000   21.2640000   24.9200000  
C 12.0480000   19.7990000   23.8650000  
C 10.9200000   20.4010000   24.3870000  
N 11.3770000   21.3200000   25.3720000  
O  9.4070000   19.4340000   22.8820000  
C  9.4950000   20.1470000   24.0260000  
O  8.5530000   20.5870000   24.6990000  
O 15.8710000   23.0020000   26.6000000  
O 16.8690000   21.1400000   24.8470000  
H 12.0210000   19.0660000   23.0600000  
H 10.3020000   19.2450000   22.6420000  
H 10.8140000   21.7840000   26.1000000  
H 16.7140000   22.5850000   26.4320000  
H 17.1930000   20.4620000   24.1960000  
H 13.1770000   22.8600000   26.8710000  
