76
111 
C 15.7390000   13.8970000   14.9520000  
C 16.8600000   12.8970000   14.7250000  
C 17.6860000   12.5800000   15.7090000  
C 17.5000000   13.0050000   17.0750000  
C 16.5020000   13.9970000   17.3920000  
C 15.6950000   14.4770000   16.3270000  
C 18.7590000   11.6520000   15.7130000  
C 19.2500000   11.6810000   17.0360000  
N 18.4410000   12.4840000   17.8070000  
O 21.1600000   10.3330000   16.6210000  
C 20.4530000   10.9880000   17.5400000  
O 20.8000000   10.9960000   18.6780000  
O 14.7910000   15.5250000   16.4580000  
O 14.9690000   14.2400000   14.0940000  
H 17.0170000   12.5160000   13.7270000  
H 19.1510000   11.1440000   14.8820000  
H 20.6670000   10.3250000   15.7860000  
H 14.7970000   15.7190000   17.4380000  
C 16.4960000   14.5640000   18.7220000  
C 17.5390000   15.2220000   19.2940000  
C 17.4640000   15.7310000   20.5330000  
C 16.3370000   15.7160000   21.3390000  
C 15.2210000   15.0770000   20.7240000  
C 15.3040000   14.5100000   19.4450000  
C 18.9320000   15.4050000   18.8820000  
C 19.5770000   16.1440000   19.9490000  
N 18.6070000   16.2540000   20.9500000  
O 21.7760000   16.1140000   18.9690000  
C 21.0140000   16.4970000   20.0140000  
O 21.5010000   17.1500000   20.9100000  
O 14.0640000   14.9770000   21.4130000  
O 14.1830000   13.9490000   18.9060000  
H 19.3880000   15.2910000   17.9320000  
H 21.1520000   15.5110000   18.5040000  
H 18.6000000   16.7660000   21.8000000  
H 14.2560000   15.3740000   22.2850000  
H 13.5250000   13.6720000   19.5510000  
C 16.2550000   16.3540000   22.6310000  
C 16.6060000   17.7160000   22.7340000  
C 16.5690000   18.3450000   23.8880000  
C 16.1290000   17.7550000   25.1090000  
C 15.8240000   16.3630000   25.0560000  
C 15.8780000   15.6810000   23.8410000  
C 17.1080000   18.7330000   21.7720000  
C 17.2300000   19.9280000   22.4830000  
N 16.9060000   19.6580000   23.8430000  
O 18.0630000   21.2070000   20.7160000  
C 17.8190000   21.1730000   22.0670000  
O 18.0650000   22.1390000   22.7910000  
O 15.4370000   15.7280000   26.2180000  
O 15.6320000   14.3460000   23.8820000  
H 17.3780000   18.7080000   20.7110000  
H 17.9840000   20.3010000   20.4150000  
H 16.9540000   20.3010000   24.6830000  
H 15.0160000   16.4150000   26.7630000  
H 16.0850000   14.0220000   24.6760000  
C 16.2490000   18.5530000   26.4000000  
C 15.6040000   19.8010000   26.5190000  
C 15.6950000   20.5540000   27.6680000  
C 16.4340000   20.1100000   28.7110000  
C 16.9900000   18.7940000   28.6920000  
C 16.9760000   18.0700000   27.4700000  
C 14.6850000   20.5030000   25.5330000  
C 14.4130000   21.7210000   26.1920000  
N 14.9710000   21.7380000   27.4980000  
O 12.7570000   22.2860000   24.5480000  
C 13.4670000   22.6990000   25.6830000  
O 13.2410000   23.8000000   26.2110000  
O 17.5940000   18.3210000   29.7680000  
O 17.6000000   16.9110000   27.4760000  
H 14.3100000   20.2460000   24.5240000  
H 13.1640000   21.4050000   24.4310000  
H 14.9690000   22.5180000   28.0940000  
H 17.7680000   17.3970000   29.6130000  
H 17.8530000   16.7670000   26.5750000  
H 16.6490000   20.7560000   29.5720000  
