76
111 
C 15.8170000   13.7570000   27.9730000  
C 16.1250000   14.5520000   29.1760000  
C 16.4710000   15.8790000   29.0490000  
C 16.7530000   16.5090000   27.8220000  
C 16.5730000   15.6920000   26.6000000  
C 16.1670000   14.3800000   26.6950000  
C 16.7750000   16.7820000   30.0460000  
C 17.0860000   17.9540000   29.3350000  
N 17.0710000   17.7550000   27.9320000  
O 16.9870000   19.0840000   31.4370000  
C 17.2640000   19.2110000   30.0640000  
O 17.6170000   20.2820000   29.4950000  
O 16.1410000   13.5520000   25.6080000  
O 15.3480000   12.6330000   28.0820000  
H 15.8590000   14.1430000   30.1740000  
H 16.8150000   16.5350000   31.0740000  
H 16.3880000   18.2610000   31.3830000  
H 16.7100000   13.9160000   24.8470000  
C 16.7910000   16.2100000   25.2780000  
C 18.0890000   16.4160000   24.7140000  
C 18.1970000   16.7600000   23.3970000  
C 17.0980000   16.8480000   22.4920000  
C 15.8110000   16.6780000   23.0380000  
C 15.6910000   16.4260000   24.3930000  
C 19.3970000   16.1520000   25.2370000  
C 20.2740000   16.2580000   24.1760000  
N 19.5120000   16.8010000   23.0810000  
O 22.1640000   15.7020000   25.4520000  
C 21.6860000   16.0000000   24.2440000  
O 22.4160000   16.0320000   23.2530000  
O 14.7060000   16.7720000   22.1610000  
O 14.4560000   16.0890000   24.8480000  
H 19.7050000   15.7950000   26.2250000  
H 21.3470000   15.7500000   25.9660000  
H 19.9340000   16.9910000   22.1710000  
H 15.1240000   16.7870000   21.2230000  
H 13.8430000   16.4480000   24.2120000  
C 17.2400000   17.1860000   21.0650000  
C 16.9910000   16.2430000   20.0480000  
C 17.1430000   16.5380000   18.7140000  
C 17.3750000   17.8100000   18.2470000  
C 17.5670000   18.8000000   19.2880000  
C 17.6570000   18.4590000   20.6580000  
C 16.5310000   14.9300000   20.1150000  
C 16.2220000   14.5320000   18.7900000  
N 16.7730000   15.4460000   17.9520000  
O 14.8710000   12.6590000   19.3030000  
C 15.4140000   13.3680000   18.3550000  
O 15.2050000   13.1020000   17.2100000  
O 17.4920000   20.1130000   18.9580000  
O 17.9330000   19.4390000   21.5600000  
H 16.2120000   14.3800000   20.9950000  
H 15.3070000   12.8560000   20.1700000  
H 16.8070000   15.3490000   16.9180000  
H 17.4290000   20.2950000   18.0050000  
H 18.0020000   20.3030000   21.1240000  
C 17.4030000   18.0710000   16.7520000  
C 16.2430000   17.8070000   15.9530000  
C 16.2640000   18.0120000   14.6080000  
C 17.3670000   18.4460000   13.9190000  
C 18.5060000   18.7810000   14.6800000  
C 18.5460000   18.5550000   16.0630000  
C 14.9000000   17.3220000   16.2740000  
C 14.1850000   17.3130000   15.0520000  
N 15.0450000   17.7210000   14.0340000  
O 12.2450000   16.1390000   15.8380000  
C 12.7540000   16.8710000   14.8560000  
O 12.0500000   17.0540000   13.8640000  
O 19.5790000   19.2720000   14.0130000  
O 19.6640000   18.7680000   16.7670000  
H 14.5000000   16.9420000   17.1690000  
H 12.8440000   15.9980000   16.5700000  
H 14.8030000   17.7610000   13.0720000  
H 20.3230000   19.3280000   14.5930000  
H 19.6190000   18.1580000   17.5010000  
H 17.2130000   18.7650000   12.8960000  
