76
111 
C 18.7770000   11.4350000   26.8650000  
C 18.7270000   12.1640000   28.2050000  
C 18.2060000   13.5240000   28.2200000  
C 17.8640000   14.2410000   27.0250000  
C 17.9710000   13.6030000   25.7280000  
C 18.3370000   12.2680000   25.7040000  
C 18.1440000   14.4270000   29.2840000  
C 17.7550000   15.6530000   28.6840000  
N 17.4510000   15.5150000   27.2950000  
O 17.7270000   16.9340000   30.6710000  
C 17.5190000   16.9550000   29.3510000  
O 17.1580000   17.9730000   28.7490000  
O 18.5090000   11.5960000   24.5600000  
O 19.1350000   10.2380000   26.7950000  
H 19.0210000   11.6470000   29.0770000  
H 18.4310000   14.3010000   30.3430000  
H 17.8980000   16.0000000   30.9210000  
H 18.0230000   12.1190000   23.8690000  
C 17.5730000   14.3710000   24.5210000  
C 18.2330000   15.6300000   24.3320000  
C 17.8920000   16.4380000   23.3280000  
C 16.8230000   16.1840000   22.4090000  
C 16.0900000   14.9820000   22.6900000  
C 16.4300000   14.1520000   23.7270000  
C 19.3490000   16.2110000   25.0070000  
C 19.7500000   17.2860000   24.1240000  
N 18.7070000   17.5420000   23.1940000  
O 21.6600000   17.7060000   25.4440000  
C 20.9640000   18.0310000   24.2830000  
O 21.3030000   18.8450000   23.4280000  
O 14.9930000   14.6890000   21.9130000  
O 15.7140000   13.0070000   23.9260000  
H 20.0230000   15.7480000   25.6220000  
H 21.1710000   16.9770000   25.8740000  
H 18.6350000   18.3750000   22.6140000  
H 14.9540000   15.4500000   21.2940000  
H 15.0800000   13.1070000   23.1830000  
C 16.5760000   16.9550000   21.1130000  
C 16.8430000   16.3470000   19.8610000  
C 16.6870000   17.0450000   18.7240000  
C 16.1020000   18.4100000   18.5890000  
C 15.8270000   18.9970000   19.9150000  
C 16.0890000   18.2990000   21.1530000  
C 17.5020000   15.0940000   19.5030000  
C 17.4860000   14.9860000   18.1250000  
N 17.0980000   16.3050000   17.6420000  
O 18.2610000   12.7860000   18.1200000  
C 18.0290000   13.8660000   17.3590000  
O 18.2860000   13.8250000   16.1410000  
O 15.4190000   20.2700000   20.0000000  
O 15.7830000   18.8080000   22.3870000  
H 17.9600000   14.3770000   20.1470000  
H 18.2900000   13.0860000   19.0630000  
H 17.1330000   16.6430000   16.6610000  
H 15.3850000   20.5810000   19.0980000  
H 16.1900000   18.1920000   23.0090000  
C 16.0080000   19.1760000   17.2430000  
C 14.7390000   19.7160000   16.9160000  
C 14.4180000   20.2740000   15.6880000  
C 15.4360000   20.3650000   14.7350000  
C 16.7550000   19.8130000   14.9970000  
C 17.0340000   19.2950000   16.2820000  
C 13.5560000   19.8500000   17.6810000  
C 12.6280000   20.5820000   16.9430000  
N 13.1100000   20.7670000   15.6740000  
O 10.9640000   20.3850000   18.5840000  
C 11.3030000   20.9450000   17.4100000  
O 10.5370000   21.7540000   16.8270000  
O 17.7150000   19.9020000   14.0270000  
O 18.2470000   18.7610000   16.5110000  
H 13.4260000   19.5090000   18.6830000  
H 11.8530000   19.9620000   18.7930000  
H 12.6180000   21.1930000   14.9030000  
H 18.4750000   19.1960000   14.1710000  
H 18.3530000   18.4560000   17.4430000  
H 15.2120000   20.8540000   13.7850000  
