76
111 
C 13.1010000   17.3610000   14.9570000  
C 13.0340000   15.9260000   14.5880000  
C 13.5120000   15.0140000   15.4630000  
C 14.0840000   15.3350000   16.7090000  
C 14.2610000   16.6880000   17.0910000  
C 13.7550000   17.7170000   16.2730000  
C 13.5370000   13.5920000   15.3790000  
C 14.1960000   13.1950000   16.5790000  
N 14.5410000   14.2690000   17.3940000  
O 14.1340000   10.9490000   15.9330000  
C 14.4510000   11.7690000   16.9210000  
O 14.8180000   11.2470000   17.9550000  
O 13.8470000   18.9930000   16.5670000  
O 12.6380000   18.1760000   14.1910000  
H 12.5600000   15.6130000   13.7000000  
H 13.0290000   12.9890000   14.6590000  
H 13.9490000   11.6170000   15.2300000  
H 14.5510000   19.2030000   17.2260000  
C 15.0150000   16.9550000   18.3660000  
C 16.3770000   17.2520000   18.3680000  
C 17.0210000   17.2590000   19.5660000  
C 16.4540000   17.0710000   20.8250000  
C 15.0560000   16.9180000   20.8440000  
C 14.3390000   16.8390000   19.5950000  
C 17.4330000   17.5070000   17.3430000  
C 18.6220000   17.7110000   18.0390000  
N 18.3550000   17.5620000   19.3570000  
O 19.8600000   18.4080000   16.1360000  
C 19.9310000   18.0270000   17.4950000  
O 20.9490000   18.0870000   18.1190000  
O 14.4020000   16.7160000   21.9910000  
O 12.9630000   16.7170000   19.6500000  
H 17.3040000   17.5720000   16.2740000  
H 18.9550000   18.2440000   15.9060000  
H 19.0110000   17.6060000   20.0860000  
H 15.0050000   16.7430000   22.7660000  
H 12.6470000   16.6810000   20.5750000  
C 17.2450000   17.0200000   22.0830000  
C 17.1300000   17.8840000   23.1760000  
C 17.8100000   17.6580000   24.3190000  
C 18.7800000   16.6670000   24.5350000  
C 18.9470000   15.7620000   23.4630000  
C 18.2510000   16.0070000   22.2140000  
C 16.3650000   19.0940000   23.3740000  
C 16.7250000   19.5090000   24.6630000  
N 17.5540000   18.6180000   25.2090000  
O 15.5550000   21.5190000   24.6620000  
C 16.3030000   20.7210000   25.3680000  
O 16.5250000   20.9600000   26.4960000  
O 19.6560000   14.5950000   23.7180000  
O 18.5430000   15.1910000   21.1950000  
H 15.6630000   19.5740000   22.6870000  
H 15.3600000   21.0470000   23.8330000  
H 17.8950000   18.6300000   26.1450000  
H 20.2300000   14.6890000   24.4790000  
H 19.1810000   14.4850000   21.5110000  
C 19.6340000   16.5300000   25.7730000  
C 19.0750000   16.4750000   27.1080000  
C 19.8410000   16.3910000   28.2430000  
C 21.2250000   16.4460000   28.1170000  
C 21.8600000   16.7230000   26.8750000  
C 21.0690000   16.7540000   25.7120000  
C 17.6900000   16.3860000   27.5170000  
C 17.6990000   16.4030000   28.9180000  
N 18.9820000   16.3330000   29.4030000  
O 15.3130000   16.4400000   29.1770000  
C 16.5000000   16.3490000   29.8540000  
O 16.5830000   16.2480000   31.0350000  
O 23.2640000   16.7440000   26.9420000  
O 21.6590000   16.9950000   24.5290000  
H 16.7990000   16.4050000   26.8940000  
H 15.4680000   16.7690000   28.2790000  
H 19.3400000   16.3630000   30.3260000  
H 23.6540000   17.0640000   26.1350000  
H 21.0510000   16.7620000   23.7530000  
H 21.8430000   16.3440000   28.9920000  
