76
111 
C 22.0970000   13.8060000   25.9690000  
C 21.9390000   12.3290000   26.0580000  
C 21.0070000   11.5980000   25.3370000  
C 20.0700000   12.2650000   24.4990000  
C 20.1390000   13.7170000   24.4320000  
C 21.0270000   14.4290000   25.2400000  
C 20.7200000   10.2220000   25.2650000  
C 19.5530000   10.1300000   24.4650000  
N 19.1450000   11.4300000   24.0740000  
O 19.2410000    7.8660000   25.0030000  
C 18.6990000    8.9390000   24.3300000  
O 17.5730000    8.9880000   23.7880000  
O 21.1750000   15.7720000   25.0490000  
O 23.0400000   14.3670000   26.4890000  
H 22.6550000   11.8970000   26.7070000  
H 21.1630000    9.4260000   25.7720000  
H 20.1700000    8.0800000   25.1950000  
H 20.6830000   15.9620000   24.2500000  
C 19.2040000   14.5020000   23.6430000  
C 18.2110000   15.2840000   24.2500000  
C 17.3550000   16.1090000   23.4890000  
C 17.3200000   16.1450000   22.0660000  
C 18.2910000   15.3530000   21.4390000  
C 19.2370000   14.5690000   22.2120000  
C 18.0010000   15.5980000   25.5810000  
C 17.0810000   16.6910000   25.5300000  
N 16.6290000   16.9160000   24.2330000  
O 17.0610000   17.1500000   27.8710000  
C 16.6360000   17.5060000   26.6580000  
O 15.9500000   18.5250000   26.5370000  
O 18.4120000   15.4230000   20.0650000  
O 20.3580000   14.0110000   21.5500000  
H 18.4980000   15.1830000   26.4430000  
H 17.5870000   16.4210000   27.6090000  
H 15.9300000   17.6610000   23.8970000  
H 17.8860000   16.0690000   19.5670000  
H 20.1720000   14.2000000   20.6020000  
C 16.3410000   17.0410000   21.3000000  
C 16.3300000   18.4330000   21.4890000  
C 15.5400000   19.1970000   20.6350000  
C 14.5590000   18.7440000   19.7610000  
C 14.4840000   17.3020000   19.6850000  
C 15.3440000   16.5160000   20.4500000  
C 17.0900000   19.3600000   22.3090000  
C 16.7860000   20.6920000   21.7930000  
N 15.7170000   20.5350000   20.9060000  
O 18.3370000   21.8630000   23.0840000  
C 17.3850000   21.9840000   22.1770000  
O 17.0520000   23.0060000   21.6350000  
O 13.5950000   16.7040000   18.8210000  
O 15.1270000   15.1750000   20.3220000  
H 17.8730000   19.1270000   23.1020000  
H 18.5400000   20.9130000   22.9560000  
H 15.3300000   21.2390000   20.2740000  
H 12.9120000   17.3480000   18.4830000  
H 15.6220000   14.7070000   20.9430000  
C 13.7530000   19.7220000   18.9140000  
C 13.9050000   19.7080000   17.5510000  
C 13.1340000   20.4990000   16.7560000  
C 12.2580000   21.4120000   17.2780000  
C 12.0860000   21.4080000   18.6780000  
C 12.8010000   20.5690000   19.4680000  
C 14.6640000   18.8380000   16.7340000  
C 14.3300000   19.2020000   15.4060000  
N 13.4370000   20.3210000   15.3730000  
O 15.5330000   17.2890000   14.5310000  
C 14.8180000   18.3990000   14.2280000  
O 14.5320000   18.6890000   13.0490000  
O 11.2320000   22.3390000   19.1390000  
O 12.5680000   20.4680000   20.8060000  
H 15.2360000   18.0090000   17.0920000  
H 15.5820000   17.1930000   15.4720000  
H 13.1630000   20.9360000   14.6290000  
H 11.2500000   22.2810000   20.0800000  
H 13.0560000   19.7090000   21.1250000  
H 11.6780000   22.0940000   16.6930000  
