76
111 
C 22.7570000   12.3450000   23.1120000  
C 22.3580000   10.9740000   23.0190000  
C 21.0600000   10.5950000   22.7810000  
C 20.0000000   11.5430000   22.6610000  
C 20.3100000   12.9610000   22.8120000  
C 21.6410000   13.3540000   23.0330000  
C 20.5300000    9.3320000   22.5210000  
C 19.1840000    9.5880000   22.2530000  
N 18.8810000   10.9130000   22.3620000  
O 18.6880000    7.3590000   21.6700000  
C 18.1660000    8.5680000   22.0510000  
O 16.9510000    8.6810000   22.0800000  
O 22.0760000   14.6900000   23.2100000  
O 23.9370000   12.6390000   23.2750000  
H 23.1780000   10.2810000   22.9920000  
H 21.0740000    8.4000000   22.4940000  
H 19.6500000    7.5540000   21.6050000  
H 21.2800000   15.2010000   23.1360000  
C 19.2380000   14.0160000   22.6220000  
C 18.9430000   15.0070000   23.5860000  
C 18.0340000   15.9600000   23.3840000  
C 17.3340000   16.2320000   22.1870000  
C 17.8110000   15.4350000   21.1140000  
C 18.7210000   14.3450000   21.2880000  
C 19.4620000   15.1220000   24.9090000  
C 18.8480000   16.2350000   25.5290000  
N 18.0370000   16.8480000   24.5350000  
O 19.4050000   15.8090000   27.7930000  
C 18.8160000   16.6160000   26.9700000  
O 18.1670000   17.6020000   27.4020000  
O 17.1790000   15.6660000   19.9530000  
O 19.2250000   13.7050000   20.2100000  
H 20.0070000   14.3620000   25.4470000  
H 19.9290000   15.2600000   27.2370000  
H 17.3820000   17.5840000   24.6490000  
H 16.5240000   16.3320000   20.1580000  
H 18.5110000   13.7030000   19.5410000  
C 16.3130000   17.2530000   22.0000000  
C 16.6720000   18.6180000   21.7540000  
C 15.7220000   19.5690000   21.4070000  
C 14.3610000   19.3090000   21.3090000  
C 13.9290000   17.9540000   21.5390000  
C 14.9150000   16.9270000   21.8530000  
C 17.9200000   19.3230000   21.7020000  
C 17.6360000   20.6670000   21.4230000  
N 16.2570000   20.8090000   21.2200000  
O 19.8740000   21.3430000   21.2920000  
C 18.6060000   21.7660000   21.2950000  
O 18.3260000   22.9790000   21.2540000  
O 12.6600000   17.6860000   21.4520000  
O 14.6050000   15.5850000   21.8440000  
H 18.9510000   18.9340000   21.9740000  
H 19.7580000   20.3930000   21.1540000  
H 15.7430000   21.6080000   20.8280000  
H 12.0900000   18.5050000   21.4140000  
H 15.4140000   15.1230000   22.1520000  
C 13.3430000   20.3740000   20.9090000  
C 12.8820000   20.3930000   19.5430000  
C 11.9980000   21.3420000   19.0950000  
C 11.5950000   22.4110000   19.8990000  
C 11.9370000   22.3770000   21.2880000  
C 12.7540000   21.3450000   21.7960000  
C 13.1780000   19.5990000   18.3850000  
C 12.5320000   20.2110000   17.3080000  
N 11.7250000   21.2560000   17.7700000  
O 13.0260000   18.5560000   15.7210000  
C 12.5050000   19.7800000   15.8900000  
O 12.0250000   20.4520000   14.9360000  
O 11.6580000   23.4730000   22.0090000  
O 13.1660000   21.3800000   23.0330000  
H 13.8050000   18.7110000   18.3310000  
H 13.2420000   18.2800000   16.6600000  
H 11.3780000   22.0110000   17.1480000  
H 12.0960000   23.4250000   22.9010000  
H 13.6650000   20.5690000   23.3140000  
H 11.0130000   23.2420000   19.4710000  
