76
111 
C 15.3890000   15.2140000   14.7950000  
C 15.8570000   13.8180000   14.4870000  
C 16.3750000   13.0350000   15.4340000  
C 16.6200000   13.4620000   16.7310000  
C 16.2820000   14.8270000   17.1230000  
C 15.7540000   15.6870000   16.1860000  
C 16.8470000   11.7340000   15.2830000  
C 17.3040000   11.4060000   16.5300000  
N 17.2260000   12.4710000   17.4340000  
O 18.0600000    9.2690000   15.8090000  
C 17.8430000   10.0660000   16.8810000  
O 18.2000000    9.7470000   18.0050000  
O 15.4440000   16.9480000   16.5430000  
O 14.8470000   16.0010000   14.0330000  
H 15.6950000   13.6240000   13.4620000  
H 16.7130000   11.0210000   14.4960000  
H 17.7360000    9.8200000   15.1130000  
H 15.6190000   16.8650000   17.4900000  
C 16.4010000   15.2140000   18.5370000  
C 17.5820000   15.7670000   18.9910000  
C 17.7200000   16.0810000   20.2870000  
C 16.6270000   16.1190000   21.2180000  
C 15.3800000   15.6200000   20.6830000  
C 15.3200000   15.1900000   19.3980000  
C 18.9100000   15.8610000   18.3830000  
C 19.7630000   16.3150000   19.4010000  
N 19.0120000   16.4060000   20.6270000  
O 21.6510000   16.6070000   17.9590000  
C 21.1530000   16.7890000   19.1880000  
O 21.8830000   17.1010000   20.1170000  
O 14.2690000   15.6590000   21.4660000  
O 14.0880000   14.8290000   18.8710000  
H 19.0550000   15.6170000   17.3800000  
H 21.0060000   16.0430000   17.4820000  
H 19.3100000   16.7310000   21.5870000  
H 14.6040000   16.1850000   22.2380000  
H 13.4370000   14.7590000   19.6110000  
C 16.7440000   16.6090000   22.5750000  
C 16.9880000   18.0010000   22.7360000  
C 17.2180000   18.5290000   24.0040000  
C 17.2750000   17.7580000   25.1490000  
C 17.0750000   16.3470000   24.9440000  
C 16.8480000   15.7400000   23.7110000  
C 16.9820000   19.1580000   21.8750000  
C 17.3880000   20.2740000   22.6580000  
N 17.2690000   19.8970000   24.0070000  
O 18.0670000   21.6800000   20.8690000  
C 17.8920000   21.6270000   22.1790000  
O 18.1300000   22.4970000   22.9800000  
O 17.0000000   15.6400000   26.0850000  
O 16.6760000   14.3740000   23.6320000  
H 16.9340000   19.1370000   20.7890000  
H 17.7980000   20.8110000   20.5200000  
H 17.4290000   20.6120000   24.8250000  
H 17.4050000   16.2360000   26.7550000  
H 16.7290000   13.9760000   24.5110000  
C 17.3230000   18.3510000   26.4850000  
C 16.2090000   19.0500000   26.9880000  
C 16.2180000   19.6380000   28.2930000  
C 17.3160000   19.5560000   29.1310000  
C 18.4960000   18.9400000   28.6130000  
C 18.5030000   18.4090000   27.2640000  
C 14.8360000   19.2610000   26.4920000  
C 14.0320000   19.7940000   27.4880000  
N 14.9150000   20.1180000   28.5540000  
O 11.9600000   19.5440000   26.4230000  
C 12.5300000   19.9730000   27.5230000  
O 11.9120000   20.4590000   28.4560000  
O 19.5850000   18.9460000   29.3690000  
O 19.6360000   17.9850000   26.7240000  
H 14.4000000   18.8770000   25.5870000  
H 12.7870000   19.2430000   25.9820000  
H 14.7840000   20.7950000   29.2440000  
H 20.2390000   18.2780000   28.9840000  
H 19.5210000   17.7250000   25.8020000  
H 17.3220000   20.0160000   30.0890000  
