76
111 
C 17.8230000   13.1890000   28.2210000  
C 16.9270000   13.9040000   29.1200000  
C 16.2010000   14.9930000   28.7000000  
C 16.2250000   15.4570000   27.3480000  
C 17.0880000   14.8150000   26.4300000  
C 17.9100000   13.7430000   26.8570000  
C 15.2970000   15.8200000   29.4110000  
C 14.8490000   16.7470000   28.4270000  
N 15.4670000   16.5130000   27.1950000  
O 13.8550000   17.9370000   30.1510000  
C 14.0920000   17.9380000   28.7870000  
O 13.6840000   18.8220000   27.9650000  
O 18.8970000   13.1730000   26.0670000  
O 18.4130000   12.1630000   28.5210000  
H 16.8500000   13.5710000   30.1230000  
H 15.0810000   15.8500000   30.5170000  
H 14.3940000   17.2200000   30.4770000  
H 18.7890000   13.6060000   25.1930000  
C 17.0600000   15.3170000   25.0620000  
C 17.9480000   16.3540000   24.7050000  
C 18.0090000   16.9440000   23.5060000  
C 17.2220000   16.5490000   22.4480000  
C 16.2790000   15.5240000   22.7350000  
C 16.2230000   14.8760000   24.0260000  
C 19.0420000   16.9200000   25.4670000  
C 19.7550000   17.7680000   24.6030000  
N 19.0950000   17.7660000   23.3420000  
O 21.4590000   18.3770000   26.0680000  
C 20.9120000   18.5680000   24.8830000  
O 21.3300000   19.3710000   24.0730000  
O 15.5110000   14.9440000   21.7560000  
O 15.3170000   13.8870000   24.2400000  
H 19.0930000   16.7690000   26.5420000  
H 20.8820000   17.7270000   26.4580000  
H 19.3170000   18.2920000   22.5350000  
H 15.7960000   15.3400000   20.8860000  
H 14.6890000   13.9070000   23.4620000  
C 17.2740000   17.1450000   21.1060000  
C 17.7350000   16.4180000   19.9980000  
C 17.5810000   16.9590000   18.7470000  
C 17.1430000   18.1990000   18.4560000  
C 16.8930000   19.0070000   19.6390000  
C 16.8850000   18.4610000   20.9590000  
C 18.1310000   15.0440000   19.8680000  
C 18.2910000   14.9220000   18.4660000  
N 18.0020000   16.0640000   17.7500000  
O 18.7560000   12.5230000   18.7760000  
C 18.5240000   13.5900000   17.9270000  
O 18.4570000   13.4200000   16.7170000  
O 16.4710000   20.2490000   19.4770000  
O 16.6310000   19.2590000   22.0510000  
H 18.3040000   14.4230000   20.7450000  
H 18.6010000   12.7930000   19.7390000  
H 17.8150000   16.0760000   16.7920000  
H 16.6630000   20.5200000   18.5490000  
H 16.3470000   18.6740000   22.7920000  
C 16.9320000   18.7020000   16.9790000  
C 16.0060000   18.0770000   16.2190000  
C 15.6300000   18.6310000   15.0020000  
C 16.1960000   19.8440000   14.4480000  
C 17.2300000   20.4320000   15.2060000  
C 17.6160000   19.8750000   16.4480000  
C 15.1000000   16.9460000   16.4800000  
C 14.2530000   16.8480000   15.3550000  
N 14.7280000   17.7610000   14.4020000  
O 12.9240000   15.0310000   16.0900000  
C 13.0810000   15.9380000   15.0980000  
O 12.3140000   15.9980000   14.1660000  
O 18.0130000   21.4150000   14.5980000  
O 18.5530000   20.5050000   17.2560000  
H 15.1780000   16.2390000   17.2340000  
H 13.6340000   15.1140000   16.8240000  
H 14.4720000   17.8370000   13.4110000  
H 18.5580000   21.7770000   15.2060000  
H 18.6440000   19.9630000   18.0460000  
H 15.9500000   20.2020000   13.4550000  
