76
111 
C 11.8150000   20.7660000   18.5520000  
C 10.4670000   20.0620000   18.4600000  
C 10.4330000   18.6990000   18.7440000  
C 11.5460000   17.9930000   19.2870000  
C 12.7450000   18.6830000   19.5480000  
C 12.9150000   19.9770000   19.1160000  
C  9.3770000   17.7350000   18.6560000  
C  9.9250000   16.5990000   19.2850000  
N 11.2110000   16.8040000   19.7130000  
O  8.0210000   15.4640000   18.8940000  
C  9.2130000   15.3260000   19.4290000  
O  9.6530000   14.2940000   19.9130000  
O 14.0640000   20.6590000   19.2680000  
O 12.0060000   21.9060000   18.1910000  
H  9.5580000   20.4920000   17.9660000  
H  8.3830000   17.8740000   18.2910000  
H  8.0020000   16.2900000   18.3800000  
H 14.6460000   19.9700000   19.7190000  
C 13.8410000   17.9200000   20.1960000  
C 14.9910000   17.6620000   19.4470000  
C 16.0520000   17.0210000   19.9530000  
C 16.1590000   16.5350000   21.2180000  
C 15.0050000   16.7580000   22.0010000  
C 13.8480000   17.4560000   21.5100000  
C 15.2990000   17.9700000   18.0650000  
C 16.6060000   17.5360000   17.8620000  
N 17.0960000   16.9450000   19.0240000  
O 16.8320000   18.2850000   15.6450000  
C 17.3640000   17.6200000   16.6230000  
O 18.4310000   17.0870000   16.4570000  
O 14.9910000   16.4790000   23.3000000  
O 12.8220000   17.7460000   22.3880000  
H 14.6320000   18.3990000   17.3130000  
H 15.9630000   18.4590000   16.0880000  
H 17.9520000   16.3960000   19.1310000  
H 15.6020000   15.7980000   23.4950000  
H 12.8100000   17.1840000   23.0740000  
C 17.4550000   15.9740000   21.8430000  
C 18.3570000   16.8680000   22.4500000  
C 19.5320000   16.4760000   22.8750000  
C 19.9470000   15.1600000   22.9700000  
C 19.1020000   14.1650000   22.3980000  
C 17.8850000   14.5870000   21.7890000  
C 18.3480000   18.2900000   22.6160000  
C 19.5850000   18.7010000   23.1640000  
N 20.2640000   17.5210000   23.3350000  
O 19.2290000   21.1040000   23.1760000  
C 20.0670000   20.1430000   23.4440000  
O 21.2090000   20.3360000   23.9170000  
O 19.3810000   12.8760000   22.5340000  
O 17.1010000   13.5990000   21.2590000  
H 17.5340000   19.0260000   22.3670000  
H 18.6870000   20.6720000   22.4730000  
H 21.1670000   17.4390000   23.7920000  
H 20.2550000   12.8490000   22.9620000  
H 17.5940000   12.8350000   21.5160000  
C 21.2380000   14.7970000   23.6710000  
C 21.3400000   14.7110000   25.0610000  
C 22.4530000   14.2520000   25.6560000  
C 23.5810000   13.7900000   24.9750000  
C 23.5650000   13.7770000   23.5560000  
C 22.4500000   14.4200000   22.9060000  
C 20.4220000   14.9860000   26.0810000  
C 20.9560000   14.6090000   27.3540000  
N 22.2180000   14.0580000   27.0130000  
O 19.2260000   15.5640000   28.7040000  
C 20.4270000   14.9260000   28.6640000  
O 20.9810000   14.6610000   29.7330000  
O 24.6260000   13.4430000   22.7570000  
O 22.4170000   14.5240000   21.5650000  
H 19.4310000   15.4130000   25.9110000  
H 18.9380000   15.6440000   27.7340000  
H 22.7830000   13.5700000   27.6110000  
H 24.3700000   13.3200000   21.8070000  
H 21.6330000   14.9250000   21.1730000  
H 24.3040000   13.1770000   25.5050000  
