76
111 
C 19.0510000    9.4960000   21.6490000  
C 20.5610000    9.5590000   21.7910000  
C 21.1960000   10.7350000   21.9520000  
C 20.5000000   11.9230000   21.9350000  
C 19.0810000   11.9650000   21.6850000  
C 18.3860000   10.8360000   21.6100000  
C 22.5860000   11.1630000   22.0690000  
C 22.5160000   12.5480000   22.1560000  
N 21.2150000   12.9790000   22.0300000  
O 24.7120000   12.7160000   22.9050000  
C 23.6200000   13.3810000   22.4920000  
O 23.5790000   14.6200000   22.4870000  
O 17.0520000   10.8600000   21.3910000  
O 18.5080000    8.4180000   21.5920000  
H 20.9630000    8.5690000   21.9230000  
H 23.4200000   10.4430000   22.2260000  
H 24.3560000   11.8290000   22.8890000  
H 16.7030000   11.8140000   21.3540000  
C 18.4240000   13.2700000   21.8060000  
C 18.2530000   14.0440000   20.6660000  
C 17.6410000   15.2090000   20.7480000  
C 17.1640000   15.8100000   21.8960000  
C 17.2080000   15.0230000   23.0150000  
C 17.9010000   13.7530000   22.9980000  
C 18.8980000   13.8740000   19.3640000  
C 18.5060000   15.0260000   18.6400000  
N 17.8660000   15.9020000   19.5630000  
O 19.5640000   14.3560000   16.7140000  
C 18.7530000   15.3150000   17.2380000  
O 18.3590000   16.2910000   16.6430000  
O 16.7720000   15.4830000   24.1960000  
O 18.1630000   13.0280000   24.1500000  
H 19.4870000   13.0120000   19.0110000  
H 19.7980000   13.9920000   17.5390000  
H 17.5510000   16.8470000   19.4000000  
H 16.5330000   16.4490000   24.1650000  
H 17.6710000   13.4510000   24.8780000  
C 16.5650000   17.1920000   21.8290000  
C 15.2760000   17.3470000   21.3510000  
C 14.6270000   18.5590000   21.3030000  
C 15.1700000   19.7830000   21.8170000  
C 16.4820000   19.6650000   22.2650000  
C 17.1710000   18.4020000   22.2360000  
C 14.3210000   16.4120000   20.8850000  
C 13.0420000   17.0120000   20.8790000  
N 13.2980000   18.4150000   21.0210000  
O 11.8660000   15.0900000   20.3450000  
C 11.7690000   16.3930000   20.5510000  
O 10.7170000   17.0570000   20.5210000  
O 17.2020000   20.6870000   22.7660000  
O 18.4740000   18.3100000   22.6730000  
H 14.5050000   15.3410000   20.6390000  
H 12.7340000   14.8740000   20.6520000  
H 12.5590000   19.0870000   21.0040000  
H 16.7250000   21.4780000   22.5270000  
H 18.6810000   17.4600000   23.2090000  
C 14.5110000   21.1380000   21.6740000  
C 14.2290000   21.9320000   22.8230000  
C 13.6770000   23.1720000   22.6860000  
C 13.2770000   23.6580000   21.4360000  
C 13.5540000   23.0030000   20.2550000  
C 14.1350000   21.6100000   20.3340000  
C 14.4130000   21.6830000   24.2160000  
C 14.0100000   22.8460000   24.9030000  
N 13.4340000   23.7270000   23.8870000  
O 14.7980000   22.2040000   27.0030000  
C 14.0760000   23.0850000   26.3330000  
O 13.6580000   24.1460000   26.8290000  
O 13.2840000   23.5940000   19.0570000  
O 14.4900000   20.9300000   19.1740000  
H 14.8780000   20.8530000   24.6690000  
H 14.9470000   21.4290000   26.3950000  
H 13.0460000   24.6310000   24.0980000  
H 13.7040000   23.0150000   18.4340000  
H 14.6180000   19.9870000   19.4500000  
H 12.8370000   24.6820000   21.4140000  
