76
111 
C 16.2390000   14.5180000   29.0390000  
C 15.7090000   15.7230000   29.6530000  
C 15.5270000   16.8640000   28.9150000  
C 15.8260000   16.8730000   27.5150000  
C 16.3650000   15.7490000   26.8350000  
C 16.5240000   14.5690000   27.5420000  
C 15.2010000   18.1330000   29.3220000  
C 15.1950000   18.7910000   28.1070000  
N 15.6180000   18.0490000   26.9790000  
O 14.7730000   20.8640000   29.0790000  
C 14.9840000   20.3070000   27.9260000  
O 15.1100000   21.0170000   26.9220000  
O 17.1670000   13.5300000   27.0340000  
O 16.4090000   13.5170000   29.7880000  
H 15.6880000   15.6220000   30.7370000  
H 15.0360000   18.5960000   30.2490000  
H 14.6580000   20.0940000   29.7390000  
H 17.0710000   13.5940000   26.0190000  
C 16.5650000   15.8760000   25.4040000  
C 17.5570000   16.6540000   24.8050000  
C 17.5390000   16.9380000   23.4870000  
C 16.5590000   16.4330000   22.5480000  
C 15.5450000   15.6370000   23.1790000  
C 15.5100000   15.3720000   24.6120000  
C 18.8250000   17.0980000   25.3270000  
C 19.5220000   17.6940000   24.2590000  
N 18.6940000   17.6550000   23.1090000  
O 21.6280000   18.0730000   25.5750000  
C 20.8690000   18.1780000   24.4030000  
O 21.4850000   18.6510000   23.4560000  
O 14.5550000   15.0440000   22.4160000  
O 14.5700000   14.5640000   25.1250000  
H 19.2050000   16.9750000   26.3260000  
H 20.9940000   17.7900000   26.3060000  
H 18.8520000   18.0020000   22.2140000  
H 14.7810000   15.2550000   21.4980000  
H 13.9570000   14.2870000   24.4100000  
C 16.6920000   16.5970000   21.0790000  
C 16.9480000   15.4400000   20.2850000  
C 17.1650000   15.5950000   18.9560000  
C 17.3580000   16.7920000   18.2250000  
C 17.1720000   17.9230000   19.0360000  
C 16.7670000   17.8410000   20.3780000  
C 16.9790000   14.0480000   20.6310000  
C 17.1710000   13.4260000   19.3650000  
N 17.2640000   14.3810000   18.3410000  
O 17.0230000   11.1480000   20.0610000  
C 17.0860000   12.0380000   19.0800000  
O 17.0050000   11.6250000   17.9240000  
O 17.3510000   19.1660000   18.4620000  
O 16.4250000   19.0070000   21.0010000  
H 16.9640000   13.5980000   21.6150000  
H 17.5280000   11.5780000   20.7900000  
H 17.3720000   14.1490000   17.3090000  
H 17.7750000   19.0440000   17.5070000  
H 16.6380000   19.7460000   20.4440000  
C 17.7930000   16.8730000   16.7800000  
C 17.0000000   17.4600000   15.8060000  
C 17.3740000   17.6910000   14.5520000  
C 18.6850000   17.4180000   14.1170000  
C 19.5280000   16.8030000   15.0990000  
C 19.0820000   16.5210000   16.4010000  
C 15.5750000   17.9190000   15.9570000  
C 15.2430000   18.4680000   14.6770000  
N 16.3550000   18.2690000   13.8590000  
O 13.2430000   19.2430000   15.5360000  
C 13.9900000   19.2410000   14.4710000  
O 13.6410000   19.7590000   13.4850000  
O 20.8630000   16.6470000   14.7960000  
O 19.8920000   15.8790000   17.2610000  
H 14.9490000   17.8880000   16.8030000  
H 13.7460000   18.6340000   16.1340000  
H 16.4300000   18.6150000   12.9040000  
H 21.1760000   16.1210000   15.5320000  
H 19.5900000   16.1010000   18.1750000  
H 19.1190000   17.7210000   13.1340000  
