76
111 
C 10.8740000   20.9310000   19.8780000  
C  9.8330000   19.9230000   19.5970000  
C 10.1400000   18.6220000   19.8470000  
C 11.4050000   18.1260000   20.1170000  
C 12.4630000   19.0710000   20.3200000  
C 12.2510000   20.3960000   20.2120000  
C  9.3130000   17.4760000   19.6350000  
C 10.1580000   16.3800000   19.9300000  
N 11.4510000   16.8440000   20.2260000  
O  8.5600000   14.8510000   19.1650000  
C  9.7650000   14.9770000   19.7780000  
O 10.4990000   13.9760000   20.0240000  
O 13.2030000   21.1970000   20.5690000  
O 10.6020000   22.1120000   19.9440000  
H  8.8590000   20.2100000   19.1920000  
H  8.2540000   17.4980000   19.4020000  
H  8.1190000   15.6960000   19.0230000  
H 13.8950000   20.6730000   21.1070000  
C 13.7630000   18.5640000   20.6930000  
C 14.8420000   18.5350000   19.7700000  
C 16.0390000   18.0260000   20.2150000  
C 16.2670000   17.4080000   21.4360000  
C 15.1720000   17.3510000   22.2850000  
C 13.9280000   17.9160000   21.9610000  
C 15.0060000   18.9580000   18.4260000  
C 16.3320000   18.6590000   18.1310000  
N 17.0240000   18.0690000   19.2540000  
O 16.1650000   19.1310000   15.8470000  
C 16.9530000   18.7150000   16.8470000  
O 18.0920000   18.3360000   16.5960000  
O 15.2380000   16.5550000   23.3190000  
O 12.8990000   17.7730000   22.8170000  
H 14.2260000   19.3180000   17.7780000  
H 15.3680000   19.5800000   16.2210000  
H 17.9940000   17.7240000   19.2230000  
H 16.2160000   16.2990000   23.5250000  
H 12.9840000   17.1540000   23.4550000  
C 17.4950000   16.5140000   21.6650000  
C 18.6050000   17.0010000   22.4150000  
C 19.6870000   16.2050000   22.6660000  
C 19.7650000   14.8450000   22.3720000  
C 18.6470000   14.3650000   21.6370000  
C 17.5600000   15.1680000   21.2840000  
C 18.7780000   18.2350000   23.0140000  
C 20.0470000   18.1850000   23.6530000  
N 20.5510000   16.9000000   23.5100000  
O 20.0560000   20.5280000   24.1840000  
C 20.7270000   19.2920000   24.3040000  
O 21.8170000   19.1170000   24.8930000  
O 18.6640000   13.0420000   21.2710000  
O 16.5050000   14.6870000   20.6800000  
H 18.1560000   19.1110000   22.8820000  
H 19.2160000   20.2610000   23.7400000  
H 21.4480000   16.4700000   23.8300000  
H 19.3600000   12.6300000   21.7900000  
H 16.7100000   13.8160000   20.3380000  
C 20.9550000   14.0750000   22.7780000  
C 21.2750000   13.8900000   24.1400000  
C 22.5150000   13.3130000   24.4440000  
C 23.4190000   12.9630000   23.4420000  
C 23.1050000   13.0600000   22.0920000  
C 21.8930000   13.6760000   21.7610000  
C 20.8260000   14.5100000   25.3690000  
C 21.8090000   14.2190000   26.3240000  
N 22.8520000   13.4950000   25.7370000  
O 20.4790000   15.1550000   28.0540000  
C 21.6380000   14.5210000   27.7940000  
O 22.4580000   14.2330000   28.6490000  
O 24.0300000   12.6860000   21.0770000  
O 21.6090000   13.8090000   20.4390000  
H 19.8520000   15.0380000   25.5070000  
H 20.0050000   15.3460000   27.1880000  
H 23.7580000   13.3060000   26.1140000  
H 23.7330000   12.6340000   20.1240000  
H 20.8960000   14.3880000   20.3140000  
H 24.4840000   12.8400000   23.6510000  
