76
111 
C 17.1370000   15.0140000   28.9710000  
C 15.8450000   15.5040000   29.5000000  
C 14.9510000   16.1780000   28.6550000  
C 15.1660000   16.4740000   27.3150000  
C 16.3670000   15.9270000   26.7200000  
C 17.3290000   15.2670000   27.4670000  
C 13.6360000   16.6050000   28.9800000  
C 13.1660000   17.0570000   27.7740000  
N 14.1490000   17.1610000   26.7700000  
O 10.9910000   17.1960000   28.5340000  
C 11.8190000   17.6190000   27.5900000  
O 11.3810000   18.2800000   26.7140000  
O 18.4590000   14.8060000   27.0020000  
O 18.0180000   14.5480000   29.6480000  
H 15.7050000   15.2260000   30.5410000  
H 13.1140000   16.4930000   29.9390000  
H 11.4710000   16.7100000   29.2540000  
H 18.5520000   15.3290000   26.1770000  
C 16.6000000   16.1750000   25.2740000  
C 17.4000000   17.2220000   24.8810000  
C 17.5150000   17.5610000   23.5590000  
C 16.8570000   16.9210000   22.5150000  
C 16.0240000   15.8050000   22.8770000  
C 15.8860000   15.4860000   24.2670000  
C 18.1130000   18.1890000   25.5820000  
C 18.6520000   19.0720000   24.6270000  
N 18.3510000   18.6190000   23.3410000  
O 19.3960000   20.5970000   26.2540000  
C 19.3770000   20.2930000   24.9120000  
O 19.7560000   21.0810000   24.0420000  
O 15.4390000   15.0880000   21.8960000  
O 15.0040000   14.4850000   24.6740000  
H 18.0130000   18.4590000   26.6340000  
H 19.0930000   19.8030000   26.6980000  
H 18.4810000   19.1470000   22.5000000  
H 15.7710000   15.5490000   21.1110000  
H 14.5800000   14.1810000   23.8820000  
C 17.1140000   17.2800000   21.0910000  
C 17.9660000   16.4630000   20.3250000  
C 18.0700000   16.6430000   18.9550000  
C 17.4860000   17.6650000   18.2330000  
C 16.8030000   18.5920000   19.0290000  
C 16.6180000   18.4300000   20.4570000  
C 18.7970000   15.3270000   20.7430000  
C 19.1590000   14.7400000   19.5960000  
N 18.6950000   15.5380000   18.4430000  
O 20.1790000   12.9240000   20.5990000  
C 19.7770000   13.4530000   19.4110000  
O 20.1590000   13.0570000   18.3350000  
O 16.2670000   19.7480000   18.4840000  
O 16.0750000   19.3970000   21.2290000  
H 18.8840000   14.8740000   21.6860000  
H 20.0490000   13.6420000   21.2870000  
H 18.8510000   15.4370000   17.4830000  
H 16.3850000   19.6260000   17.5210000  
H 16.3910000   20.2790000   20.9330000  
C 17.7050000   17.7330000   16.7620000  
C 17.0860000   16.7840000   15.9250000  
C 17.2240000   16.8360000   14.5540000  
C 17.8450000   17.8970000   13.9360000  
C 18.4500000   18.8970000   14.7440000  
C 18.4110000   18.7830000   16.1380000  
C 16.3740000   15.5900000   16.2490000  
C 16.2940000   14.9220000   15.0200000  
N 16.8370000   15.7020000   13.9920000  
O 15.3500000   12.8630000   15.8090000  
C 15.7260000   13.6130000   14.7160000  
O 15.5890000   13.1340000   13.6010000  
O 19.2600000   19.8390000   14.2430000  
O 19.0210000   19.7600000   16.9310000  
H 16.0570000   15.2160000   17.1570000  
H 15.7380000   13.2550000   16.5610000  
H 16.6320000   15.5730000   12.9860000  
H 19.4450000   20.4370000   15.0270000  
H 18.7990000   19.5180000   17.8660000  
H 17.9610000   17.9430000   12.8610000  
