76
111 
C 17.3500000   17.0580000   29.2430000  
C 18.0780000   15.8670000   29.6010000  
C 18.4320000   14.9540000   28.6190000  
C 18.3440000   15.2710000   27.2240000  
C 17.7030000   16.4400000   26.7790000  
C 17.2310000   17.3090000   27.7940000  
C 18.9150000   13.6100000   28.7760000  
C 19.1310000   13.2010000   27.4370000  
N 18.7310000   14.2040000   26.4990000  
O 19.9230000   11.0040000   28.0090000  
C 19.7600000   11.9300000   27.0310000  
O 20.1950000   11.6990000   25.8840000  
O 16.4260000   18.3580000   27.5150000  
O 16.8150000   17.6910000   30.0630000  
H 18.1040000   15.6370000   30.7040000  
H 19.0610000   13.0160000   29.6610000  
H 19.4390000   11.3590000   28.7930000  
H 16.2190000   18.3070000   26.5720000  
C 17.4340000   16.5540000   25.3810000  
C 16.0870000   16.4480000   24.9070000  
C 15.7780000   16.7240000   23.6150000  
C 16.7500000   16.9010000   22.6110000  
C 18.1160000   16.8660000   23.0120000  
C 18.4590000   16.7990000   24.3820000  
C 14.8040000   16.2430000   25.6170000  
C 13.7830000   16.3050000   24.6360000  
N 14.4480000   16.6840000   23.3970000  
O 12.0920000   15.4940000   25.9970000  
C 12.3650000   16.0090000   24.8300000  
O 11.5120000   16.1270000   24.0040000  
O 19.1770000   17.1360000   22.0870000  
O 19.8260000   16.9600000   24.7390000  
H 14.6160000   16.0310000   26.6460000  
H 12.9300000   15.1820000   26.4000000  
H 13.9470000   16.8010000   22.5470000  
H 18.8260000   17.1870000   21.0810000  
H 20.2760000   17.1300000   23.9330000  
C 16.4210000   16.9800000   21.2040000  
C 16.5590000   18.1650000   20.4920000  
C 16.3520000   18.1700000   19.1370000  
C 15.8810000   17.0960000   18.4060000  
C 15.7170000   15.9150000   19.0770000  
C 15.9950000   15.8060000   20.4690000  
C 17.0910000   19.4730000   20.7040000  
C 17.1540000   20.2130000   19.4920000  
N 16.7260000   19.3330000   18.5240000  
O 18.0230000   22.2050000   20.3910000  
C 17.5200000   21.6120000   19.3070000  
O 17.2530000   22.1740000   18.2510000  
O 15.2240000   14.8580000   18.3240000  
O 15.9450000   14.5680000   21.0650000  
H 17.3360000   19.9000000   21.7100000  
H 18.0660000   21.4540000   21.0220000  
H 16.7720000   19.5210000   17.5250000  
H 15.3920000   14.9730000   17.3750000  
H 16.1740000   14.7020000   21.9910000  
C 15.8000000   17.1630000   16.9060000  
C 16.9160000   17.0030000   16.0440000  
C 16.7110000   17.2140000   14.7140000  
C 15.4910000   17.4160000   14.0720000  
C 14.3520000   17.6100000   14.8940000  
C 14.5130000   17.4360000   16.3060000  
C 18.3040000   16.6940000   16.2950000  
C 18.8810000   16.7900000   15.0010000  
N 17.9020000   17.1040000   14.0850000  
O 21.1690000   16.2170000   15.6970000  
C 20.3190000   16.6100000   14.6750000  
O 20.7890000   16.7710000   13.5360000  
O 13.1460000   17.9370000   14.3540000  
O 13.4310000   17.6250000   17.0650000  
H 18.8720000   16.5100000   17.2410000  
H 20.6480000   15.9290000   16.4510000  
H 18.0460000   17.1170000   13.1010000  
H 12.5410000   18.1230000   15.1060000  
H 13.8160000   17.7140000   17.9500000  
H 15.4230000   17.5610000   13.0060000  
