76
111 
C 15.1580000   12.0110000   16.0980000  
C 16.1190000   12.3030000   15.0550000  
C 17.1310000   13.2100000   15.3620000  
C 17.2570000   13.8960000   16.5180000  
C 16.2780000   13.6670000   17.5490000  
C 15.2660000   12.6820000   17.4040000  
C 18.1860000   13.7280000   14.5890000  
C 18.9040000   14.5940000   15.3650000  
N 18.2730000   14.7640000   16.6180000  
O 20.3240000   15.3190000   13.5310000  
C 20.0940000   15.3750000   14.8960000  
O 20.7250000   15.9730000   15.7500000  
O 14.3760000   12.3140000   18.3830000  
O 14.3560000   11.1050000   15.8750000  
H 16.1390000   11.6680000   14.1170000  
H 18.5400000   13.2360000   13.6040000  
H 19.6000000   14.7880000   13.1740000  
H 14.6590000   12.7650000   19.1890000  
C 16.3410000   14.4340000   18.7630000  
C 15.5740000   15.6120000   18.9440000  
C 15.7450000   16.3330000   20.0640000  
C 16.7550000   16.1910000   21.0410000  
C 17.5910000   15.1130000   20.8050000  
C 17.3860000   14.2080000   19.6880000  
C 14.5410000   16.1830000   18.1680000  
C 14.0540000   17.2960000   18.8830000  
N 14.8390000   17.3290000   20.0590000  
O 12.4560000   18.2870000   17.3530000  
C 13.1130000   18.4340000   18.4890000  
O 12.9200000   19.3510000   19.2680000  
O 18.7080000   14.8870000   21.6280000  
O 18.1970000   13.1360000   19.5630000  
H 14.1120000   15.8000000   17.2280000  
H 12.7680000   17.4810000   17.0350000  
H 14.7230000   18.1120000   20.7240000  
H 18.8110000   15.7300000   22.1670000  
H 18.8280000   13.1360000   20.3210000  
C 16.7440000   17.0250000   22.2810000  
C 16.6380000   16.3970000   23.5120000  
C 16.4380000   17.1370000   24.6400000  
C 16.6900000   18.5390000   24.7450000  
C 16.8680000   19.1800000   23.4570000  
C 16.8890000   18.4220000   22.2650000  
C 16.7310000   15.0430000   23.8910000  
C 16.8470000   15.0400000   25.3160000  
N 16.6380000   16.3790000   25.7330000  
O 17.3130000   12.6330000   25.3700000  
C 17.2110000   13.7700000   26.1140000  
O 17.3060000   13.7770000   27.3320000  
O 16.9040000   20.5280000   23.2300000  
O 17.0610000   19.0070000   21.0450000  
H 16.7470000   14.1550000   23.3270000  
H 17.3400000   12.9030000   24.4070000  
H 16.8660000   16.7540000   26.6230000  
H 16.6600000   20.8320000   24.0690000  
H 17.1180000   18.3490000   20.2960000  
C 16.6410000   19.2280000   26.0920000  
C 17.7130000   19.8420000   26.6940000  
C 17.6610000   20.4290000   27.9730000  
C 16.4840000   20.5890000   28.5570000  
C 15.3440000   19.9420000   28.0630000  
C 15.4620000   19.2030000   26.8860000  
C 19.0240000   20.0180000   26.2370000  
C 19.7110000   20.9030000   27.1000000  
N 18.8670000   21.1170000   28.2080000  
O 21.6240000   21.1630000   25.7570000  
C 21.0470000   21.4690000   26.9340000  
O 21.6160000   22.0630000   27.8090000  
O 14.0840000   20.0020000   28.5950000  
O 14.3810000   18.4680000   26.4530000  
H 19.4080000   19.6110000   25.2850000  
H 20.9880000   20.6560000   25.1830000  
H 19.0810000   21.5400000   29.1120000  
H 13.5030000   19.6540000   27.8550000  
H 14.6890000   17.8700000   25.7270000  
H 16.4330000   21.2660000   29.3520000  
