76
111 
C 22.8360000   13.1410000   19.9010000  
C 22.5790000   11.8640000   19.2650000  
C 21.2670000   11.4860000   19.0310000  
C 20.1510000   12.2520000   19.3280000  
C 20.3890000   13.5140000   19.9820000  
C 21.6740000   13.9060000   20.3010000  
C 20.7820000   10.3640000   18.3880000  
C 19.3970000   10.5710000   18.2330000  
N 19.0460000   11.7750000   18.8840000  
O 19.0230000    8.5860000   17.0250000  
C 18.4750000    9.7100000   17.5710000  
O 17.3020000    9.8840000   17.4230000  
O 21.9240000   15.0850000   20.9530000  
O 24.0030000   13.4780000   20.1010000  
H 23.4220000   11.3230000   18.8300000  
H 21.4580000    9.6550000   17.8790000  
H 19.9190000    8.5800000   17.4480000  
H 21.1040000   15.6020000   21.0040000  
C 19.2230000   14.3960000   20.3410000  
C 18.3070000   14.0240000   21.3750000  
C 17.3650000   14.9190000   21.7150000  
C 17.1340000   16.2070000   21.1250000  
C 17.9530000   16.4650000   20.0660000  
C 18.9650000   15.5850000   19.6080000  
C 18.2650000   12.8980000   22.2790000  
C 17.2800000   13.1820000   23.1900000  
N 16.8000000   14.4940000   22.8970000  
O 17.4070000   11.1780000   24.3680000  
C 16.7850000   12.3910000   24.3170000  
O 15.9380000   12.8230000   25.0840000  
O 17.9290000   17.6480000   19.4100000  
O 19.8250000   15.9520000   18.6360000  
H 18.8570000   11.9600000   22.1050000  
H 18.0050000   11.1080000   23.6350000  
H 16.1360000   15.0300000   23.4650000  
H 17.1440000   18.0670000   19.7410000  
H 19.5720000   16.7580000   18.2520000  
C 16.0570000   17.0850000   21.7060000  
C 16.0460000   17.5070000   23.0250000  
C 15.2080000   18.5190000   23.4420000  
C 14.1780000   19.1030000   22.6250000  
C 14.1080000   18.6060000   21.3250000  
C 15.0690000   17.6510000   20.8080000  
C 16.9640000   17.4250000   24.1210000  
C 16.6120000   18.3880000   25.0680000  
N 15.3950000   18.9270000   24.7460000  
O 18.6910000   18.0400000   26.3270000  
C 17.4720000   18.6400000   26.3120000  
O 16.9960000   19.4420000   27.1450000  
O 13.2580000   19.1890000   20.4560000  
O 14.9760000   17.2050000   19.5250000  
H 17.8680000   16.8600000   24.0090000  
H 18.7910000   17.8730000   25.3670000  
H 14.7440000   19.6110000   25.2700000  
H 12.5220000   19.6710000   20.8300000  
H 14.3130000   17.7530000   19.0510000  
C 13.4340000   20.2750000   23.1320000  
C 13.8570000   21.5330000   22.7480000  
C 13.2090000   22.6450000   23.1900000  
C 12.1770000   22.5770000   24.1310000  
C 11.8280000   21.2980000   24.6230000  
C 12.4300000   20.1290000   24.1120000  
C 14.8150000   21.9960000   21.7520000  
C 14.5970000   23.3360000   21.6110000  
N 13.7000000   23.7620000   22.5990000  
O 16.1830000   23.7930000   19.9110000  
C 15.1880000   24.3100000   20.6460000  
O 14.7990000   25.4430000   20.5460000  
O 10.7560000   21.2900000   25.4740000  
O 11.9290000   18.9020000   24.5910000  
H 15.5260000   21.3480000   21.1800000  
H 16.3050000   22.9510000   20.3840000  
H 13.5350000   24.7060000   22.8810000  
H 10.4760000   20.3830000   25.5380000  
H 12.3620000   18.1740000   24.2150000  
H 11.7110000   23.4490000   24.6040000  
