76
111 
C 16.1770000   13.5610000   28.6770000  
C 17.2680000   14.2130000   29.4870000  
C 17.9490000   15.2910000   28.9540000  
C 17.7540000   15.7270000   27.6430000  
C 16.8620000   15.0320000   26.7850000  
C 16.0420000   13.9740000   27.2630000  
C 19.0330000   16.1070000   29.4510000  
C 19.2800000   17.0500000   28.4410000  
N 18.6000000   16.6830000   27.2970000  
O 20.6240000   18.5970000   29.7650000  
C 20.1540000   18.2710000   28.4770000  
O 20.4200000   19.0200000   27.5370000  
O 15.0670000   13.3540000   26.5080000  
O 15.4950000   12.6470000   29.0310000  
H 17.4560000   13.9130000   30.4670000  
H 19.4760000   15.9150000   30.3910000  
H 20.1320000   17.9230000   30.3590000  
H 14.9590000   13.8640000   25.7030000  
C 16.7400000   15.5350000   25.4110000  
C 17.7640000   15.4720000   24.4320000  
C 17.6170000   16.0190000   23.1760000  
C 16.5100000   16.6840000   22.7450000  
C 15.4580000   16.7460000   23.7020000  
C 15.6160000   16.2540000   25.0060000  
C 19.0610000   14.8770000   24.5630000  
C 19.5940000   14.8990000   23.2900000  
N 18.7680000   15.7270000   22.4790000  
O 21.2260000   13.2360000   23.7180000  
C 20.6730000   13.9830000   22.8110000  
O 21.0170000   13.8710000   21.6460000  
O 14.3290000   17.3790000   23.4120000  
O 14.5080000   16.3120000   25.8850000  
H 19.4210000   14.3530000   25.4590000  
H 20.9910000   13.7330000   24.5110000  
H 19.0030000   16.0410000   21.4750000  
H 14.3640000   17.5880000   22.4220000  
H 13.9350000   16.9670000   25.4810000  
C 16.3410000   17.2960000   21.3620000  
C 16.6930000   16.4650000   20.3090000  
C 16.7240000   16.9150000   19.0310000  
C 16.2590000   18.1580000   18.5540000  
C 15.8760000   19.0580000   19.5830000  
C 15.9310000   18.6190000   20.9540000  
C 17.1720000   15.1090000   20.2240000  
C 17.3700000   14.7970000   18.8830000  
N 17.0010000   15.9080000   18.1690000  
O 18.1420000   12.4910000   19.0470000  
C 17.8790000   13.5770000   18.2660000  
O 18.1050000   13.4450000   17.0640000  
O 15.5130000   20.3290000   19.3450000  
O 15.6090000   19.5310000   21.9450000  
H 17.1760000   14.3570000   21.0360000  
H 17.8220000   12.6570000   19.9660000  
H 16.6790000   15.7780000   17.2840000  
H 15.5220000   20.4160000   18.4020000  
H 15.3080000   20.2000000   21.2750000  
C 16.4030000   18.6070000   17.1310000  
C 15.2960000   18.8470000   16.2880000  
C 15.5040000   19.1860000   14.9890000  
C 16.7040000   19.5790000   14.4630000  
C 17.8470000   19.2770000   15.2230000  
C 17.6740000   18.7280000   16.4800000  
C 13.8940000   18.6980000   16.4840000  
C 13.2680000   19.1410000   15.3390000  
N 14.3020000   19.4370000   14.3650000  
O 11.1240000   18.9710000   16.1630000  
C 11.8540000   19.2360000   15.0430000  
O 11.3450000   19.5670000   13.9670000  
O 19.0540000   19.5470000   14.6690000  
O 18.7940000   18.5190000   17.2770000  
H 13.4420000   18.4880000   17.3780000  
H 11.8290000   18.8730000   16.8310000  
H 14.1860000   19.7810000   13.4380000  
H 19.7650000   19.0600000   15.1630000  
H 18.5150000   18.4510000   18.2090000  
H 16.7130000   20.1790000   13.5510000  
