76
tetramer_110_MKI1.pdb
C          0.06800       -1.41400       12.48700
C         -0.40200       -0.18600       13.19600
C         -0.64900        0.89100       12.48400
C         -0.45400        0.95600       11.00400
C         -0.07900       -0.21500       10.29800
C          0.18600       -1.33700       11.00900
C         -1.20300        2.20700       12.79900
C         -1.30300        2.93200       11.65900
N         -0.77200        2.15100       10.59100
O         -2.34800        5.02400       12.30100
C         -2.11300        4.13300       11.31200
O         -2.58700        4.30400       10.21100
O          0.51700       -2.52700       10.49900
O          0.32300       -2.45500       13.07000
H         -0.52500       -0.24000       14.27300
H         -1.55500        2.49700       13.78000
H         -1.80900        4.79900       13.07800
H          1.10900       -2.38900        9.72400
C         -0.08700       -0.17800        8.80800
C          1.07600       -0.52400        8.06200
C          1.00100       -0.68300        6.66200
C         -0.11000       -0.28300        5.88000
C         -1.20900        0.12200        6.62400
C         -1.20200        0.12300        8.04800
C          2.42800       -0.82000        8.43400
C          3.07500       -1.22400        7.29600
N          2.20600       -1.17900        6.24100
O          5.15500       -2.15000        8.00300
C          4.50300       -1.49600        7.05100
O          5.06100       -1.12000        6.03500
O         -2.37800        0.57800        6.09800
O         -2.38500        0.45600        8.65500
H          2.88000       -0.70900        9.40800
H          4.54300       -2.55900        8.64900
H          2.48500       -1.32600        5.28500
H         -2.57800        0.07300        5.28100
H         -3.01400        0.63700        7.93400
C         -0.00900       -0.24000        4.40100
C         -0.93600       -0.95600        3.58900
C         -0.98700       -0.72200        2.19900
C          0.00000        0.00000        1.48200
C          0.94800        0.61500        2.28900
C          0.90300        0.53200        3.70900
C         -1.97300       -1.90200        3.88200
C         -2.65200       -2.12100        2.71400
N         -2.08100       -1.38400        1.71300
O         -4.66100       -3.26800        3.29700
C         -3.71800       -3.08700        2.38400
O         -3.71500       -3.70100        1.33100
O          2.01000        1.33400        1.83300
O          1.83400        1.28100        4.38300
H         -2.17800       -2.38100        4.82700
H         -4.65600       -2.56700        3.98300
H         -2.34100       -1.47200        0.74400
H          1.73300        1.84400        1.04200
H          2.36700        1.72300        3.69700
C          0.00000        0.00000        0.00000
C         -1.19000        0.29200       -0.72800
C         -1.12800        0.53800       -2.11500
C          0.00900        0.26600       -2.91600
C          1.13400       -0.10700       -2.19400
C          1.13100       -0.18300       -0.77200
C         -2.55800        0.47900       -0.34000
C         -3.22900        0.91300       -1.45200
N         -2.36100        0.98300       -2.50700
O         -5.34700        1.71300       -0.69900
C         -4.67000        1.13600       -1.68200
O         -5.21000        0.78500       -2.71600
O          2.33300       -0.45000       -2.74000
O          2.34100       -0.44800       -0.18400
H         -3.00000        0.28800        0.62500
H         -4.75900        2.12700       -0.03300
H         -2.65200        1.17300       -3.45200
H          2.50200        0.12100       -3.52000
H          2.97700       -0.54900       -0.91500
H          0.00200        0.34300       -3.99700
