76
tetramer_101_MKI1.pdb
C          0.94000       -1.60100       12.39600
C          0.52800       -0.40700       13.19300
C          0.22600        0.70000       12.55200
C          0.30500        0.83100       11.06500
C          0.62200       -0.30700       10.28100
C          0.94200       -1.45900       10.91800
C         -0.30100        1.99900       12.96700
C         -0.49000        2.77300       11.87100
N         -0.04400        2.04200       10.73100
O         -1.47900        4.83200       12.68500
C         -1.32400        3.98600       11.64300
O         -1.88200        4.20500       10.59000
O          1.23100       -2.62300       10.33200
O          1.24000       -2.66600       12.91100
H          0.49000       -0.50900       14.27400
H         -0.57400        2.24400       13.98500
H         -0.88100        4.57400       13.40700
H          1.76100       -2.45000        9.52000
C          0.49700       -0.20400        8.79900
C          1.59800       -0.51400        7.94900
C          1.41400       -0.61100        6.55400
C          0.24500       -0.18000        5.88000
C         -0.79200        0.18800        6.72500
C         -0.67300        0.12600        8.14300
C          2.97600       -0.82100        8.20100
C          3.53100       -1.17300        6.99900
N          2.58100       -1.08400        6.01900
O          5.66000       -2.12200        7.49900
C          4.93500       -1.43000        6.63100
O          5.41200       -1.00700        5.59200
O         -1.99900        0.66400        6.31300
O         -1.80500        0.42900        8.85500
H          3.50300       -0.75200        9.14000
H          5.10000       -2.56200        8.17200
H          2.78500       -1.18800        5.03800
H         -2.26300        0.19500        5.49300
H         -2.48900        0.64000        8.19400
C          0.23000       -0.07100        4.40100
C          0.67900       -1.15300        3.58900
C          0.44100       -1.14000        2.19900
C          0.00000        0.00000        1.48200
C         -0.34700        1.07500        2.28900
C         -0.27900        1.01100        3.70900
C          1.32300       -2.40000        3.88200
C          1.35800       -3.11200        2.71400
N          0.79500       -2.37000        1.71300
O          1.94300       -5.35100        3.29700
C          2.01400       -4.39300        2.38400
O          2.60700       -4.55000        1.33100
O         -0.76500        2.28800        1.83300
O         -0.76000        2.10400        4.38300
H          1.73300       -2.72200        4.82700
H          1.26700       -5.16300        3.98300
H          0.81200       -2.64300        0.74400
H         -1.32900        2.15300        1.04200
H         -1.04800        2.73400        3.69700
C          0.00000        0.00000        0.00000
C         -1.18900        0.29400       -0.72800
C         -1.12700        0.53900       -2.11500
C          0.01000        0.26600       -2.91600
C          1.13400       -0.10900       -2.19400
C          1.13100       -0.18500       -0.77200
C         -2.55700        0.48300       -0.34000
C         -3.22700        0.91800       -1.45200
N         -2.36000        0.98600       -2.50700
O         -5.34500        1.72000       -0.69900
C         -4.66800        1.14200       -1.68200
O         -5.20900        0.79200       -2.71600
O          2.33200       -0.45300       -2.74000
O          2.34000       -0.45100       -0.18400
H         -3.00000        0.29200        0.62500
H         -4.75600        2.13400       -0.03300
H         -2.65000        1.17700       -3.45200
H          2.50200        0.11800       -3.52000
H          2.97600       -0.55300       -0.91500
H          0.00200        0.34300       -3.99700
