76
tetramer_100_DKI1.pdb
C          0.95300       -1.66000       12.47100
C          0.55700       -0.50200       13.20500
C          0.24400        0.65000       12.55300
C          0.34000        0.71800       11.06800
C          0.62300       -0.30500       10.28100
C          0.97400       -1.57300       10.90000
C         -0.27400        1.93000       12.98200
C         -0.45800        2.70100       11.86100
N         -0.03200        2.01000       10.75200
O         -1.44100        4.75900       12.67300
C         -1.28800        3.91300       11.63200
O         -1.84500        4.13200       10.58200
O          0.94200       -2.66400       10.36000
O          1.51000       -2.61100       12.99700
H          0.51900       -0.60400       14.28600
H         -0.54700        2.17500       13.99900
H         -0.84400        4.50000       13.39400
H          0.00800        2.37900        9.81200
C          0.49800       -0.20300        8.79900
C          1.59900       -0.51000        7.94900
C          1.41500       -0.60800        6.55400
C          0.24500       -0.18000        5.88000
C         -0.79200        0.18700        6.72500
C         -0.67300        0.12500        8.14300
C          2.97800       -0.81500        8.20100
C          3.53300       -1.16500        6.99900
N          2.58400       -1.07800        6.01900
O          5.66400       -2.11100        7.49900
C          4.93800       -1.41900        6.63100
O          5.41400       -0.99500        5.59200
O         -2.00000        0.65900        6.31300
O         -1.80600        0.42600        8.85500
H          3.50400       -0.74500        9.14000
H          5.10500       -2.55200        8.17200
H          2.78700       -1.18200        5.03800
H         -2.26300        0.19100        5.49300
H         -2.49000        0.63500        8.19400
C          0.23000       -0.07100        4.40100
C          0.68200       -1.15100        3.58900
C          0.44300       -1.14000        2.19900
C          0.00000        0.00000        1.48200
C         -0.34900        1.07400        2.28900
C         -0.28100        1.01000        3.70900
C          1.32800       -2.39800        3.88200
C          1.36400       -3.10900        2.71400
N          0.80000       -2.36800        1.71300
O          1.95400       -5.34700        3.29700
C          2.02300       -4.38800        2.38400
O          2.61700       -4.54400        1.33100
O         -0.77000        2.28600        1.83300
O         -0.76400        2.10200        4.38300
H          1.73900       -2.71900        4.82700
H          1.27800       -5.16000        3.98300
H          0.81800       -2.64100        0.74400
H         -1.33400        2.15000        1.04200
H         -1.05400        2.73100        3.69700
C          0.00000        0.00000        0.00000
C         -0.58900       -1.07400       -0.72800
C         -0.81100       -0.95100       -2.11500
C         -0.25500        0.07800       -2.91600
C          0.39600        1.06800       -2.19400
C          0.46900        1.04500       -0.77200
C         -1.12300       -2.34800       -0.34000
C         -1.71600       -2.88300       -1.45200
N         -1.55900       -2.02800       -2.50700
O         -3.03500       -4.72400       -0.69900
C         -2.30300       -4.21800       -1.68200
O         -2.10300       -4.83000       -2.71600
O          1.03700        2.13800       -2.74000
O          1.03700        2.14600       -0.18400
H         -1.05300       -2.82400        0.62500
H         -3.28300       -4.04800       -0.03300
H         -1.81800       -2.25900       -3.45200
H          0.52900        2.44900       -3.52000
H          1.29900        2.73400       -0.91500
H         -0.33100        0.09000       -3.99700
