76
tetramer_110_DKI1.pdb
C          0.07400       -1.47200       12.56500
C         -0.37400       -0.28300       13.21400
C         -0.63200        0.84000       12.48900
C         -0.42000        0.84200       11.01500
C         -0.07900       -0.21500       10.29800
C          0.21900       -1.45400       10.99800
C         -1.17900        2.13700       12.81900
C         -1.27100        2.85800       11.65500
N         -0.76200        2.11800       10.61400
O         -2.30900        4.94900       12.29500
C         -2.07700        4.05800       11.30900
O         -2.55000        4.23100       10.20900
O          0.22500       -2.56700       10.50600
O          0.58600       -2.39800       13.17400
H         -0.49700       -0.33700       14.29200
H         -1.53000        2.42700       13.80100
H         -1.77200        4.72200       13.07200
H         -0.64700        2.44600        9.66500
C         -0.08700       -0.17800        8.80800
C          1.07700       -0.52200        8.06200
C          1.00300       -0.68100        6.66200
C         -0.11000       -0.28400        5.88000
C         -1.20900        0.11900        6.62400
C         -1.20200        0.12000        8.04800
C          2.43000       -0.81500        8.43400
C          3.07700       -1.21700        7.29600
N          2.20800       -1.17400        6.24100
O          5.16000       -2.13900        8.00300
C          4.50600       -1.48700        7.05100
O          5.06300       -1.10900        6.03500
O         -2.37900        0.57300        6.09800
O         -2.38600        0.45100        8.65500
H          2.88200       -0.70300        9.40800
H          4.54800       -2.55000        8.64900
H          2.48800       -1.32100        5.28500
H         -2.57900        0.06800        5.28100
H         -3.01600        0.63100        7.93400
C         -0.00900       -0.24000        4.40100
C         -0.93400       -0.95800        3.58900
C         -0.98500       -0.72400        2.19900
C          0.00000        0.00000        1.48200
C          0.94600        0.61700        2.28900
C          0.90200        0.53400        3.70900
C         -1.97000       -1.90600        3.88200
C         -2.64700       -2.12600        2.71400
N         -2.07800       -1.38900        1.71300
O         -4.65500       -3.27800        3.29700
C         -3.71100       -3.09500        2.38400
O         -3.70700       -3.70900        1.33100
O          2.00700        1.33800        1.83300
O          1.83100        1.28500        4.38300
H         -2.17300       -2.38600        4.82700
H         -4.65000       -2.57600        3.98300
H         -2.33800       -1.47600        0.74400
H          1.72900        1.84700        1.04200
H          2.36300        1.72800        3.69700
C          0.00000        0.00000        0.00000
C         -1.19100        0.29000       -0.72800
C         -1.12900        0.53500       -2.11500
C          0.00900        0.26600       -2.91600
C          1.13400       -0.10500       -2.19400
C          1.13100       -0.18100       -0.77200
C         -2.55900        0.47400       -0.34000
C         -3.23000        0.90700       -1.45200
N         -2.36300        0.97800       -2.50700
O         -5.35100        1.70200       -0.69900
C         -4.67200        1.12600       -1.68200
O         -5.21100        0.77400       -2.71600
O          2.33400       -0.44500       -2.74000
O          2.34200       -0.44300       -0.18400
H         -3.00100        0.28200        0.62500
H         -4.76300        2.11700       -0.03300
H         -2.65400        1.16700       -3.45200
H          2.50200        0.12700       -3.52000
H          2.97800       -0.54300       -0.91500
H          0.00100        0.34300       -3.99700
