78
tetramer_101.pdb
C          1.09300       -0.04900       30.11300
C          0.71100        1.09900       30.76100
C          0.38100        2.22400       29.97700
C          0.48400        2.14600       28.57000
C          0.80700        0.95300       27.87300
C          1.12600       -0.12800       28.68500
C         -0.14000        3.51600       30.28600
C         -0.32100        4.17000       29.08500
N          0.11700        3.36300       28.06800
O         -1.31100        6.27600       29.65500
C         -1.14400        5.32800       28.72200
O         -1.69600        5.42800       27.64200
O          1.43000       -1.37000       28.22500
O          1.42300       -1.15900       30.81400
H          0.66300        1.11600       31.84400
H         -0.42400        3.87000       31.26900
H         -0.72200        6.10200       30.40300
H         -0.01500        3.59200       27.09600
H          1.96300       -1.28600       27.40800
H          1.65300       -1.83700       30.15900
C          0.69600        0.89100       26.39400
C          1.80700        0.50000       25.59400
C          1.63700        0.24900       24.21600
C          0.47100        0.59200       23.48800
C         -0.57700        1.04200       24.28000
C         -0.47100        1.13700       25.69700
C          3.18400        0.23500       25.88900
C          3.75300       -0.24100       24.73800
N          2.81300       -0.26900       23.74600
O          5.88500       -1.11100       25.35800
C          5.16300       -0.52400       24.41200
O          5.64600       -0.21400       23.33800
O         -1.78400        1.45800       23.80800
O         -1.61200        1.50600       26.36100
H          3.70200        0.41100       26.82000
H          5.32300       -1.47900       26.07000
H          3.02600       -0.47900       22.78400
H         -2.03600        0.90000       23.04200
H         -2.29100        1.63700       25.67500
C          0.46800        0.53800       22.00700
C          0.93400       -0.62200       21.32200
C          0.70900       -0.76500       19.93700
C          0.26600        0.28600       19.09600
C         -0.09700        1.44000       19.77700
C         -0.04300        1.53300       21.19600
C          1.58500       -1.82400       21.75600
C          1.63700       -2.66000       20.67400
N          1.07800       -2.03600       19.59300
O          2.23500       -4.81500       21.50400
C          2.30600       -3.96200       20.49200
O          2.91100       -4.22900       19.46800
O         -0.52100        2.59100       19.18700
O         -0.53900        2.68900       21.74100
H          1.98900       -2.03600       22.73400
H          1.55100       -4.55900       22.16000
H          1.10600       -2.41400       18.65900
H         -1.07700        2.36600       18.41100
H         -0.82500        3.23700       20.98800
C          0.28000        0.12300       17.62300
C         -0.90500        0.32500       16.85700
C         -0.83200        0.41700       15.45200
C          0.31500        0.06800       14.69500
C          1.43500       -0.21500       15.46400
C          1.41900       -0.13500       16.88500
C         -2.27800        0.54300       17.21000
C         -2.94100        0.84700       16.05200
N         -2.06400        0.80700       15.00300
O         -5.07200        1.70800       16.69400
C         -4.38100        1.03100       15.78600
O         -4.90900        0.56600       14.79200
O          2.64100       -0.60600       14.96900
O          2.62500       -0.32400       17.51000
H         -2.72800        0.45500       18.18700
H         -4.49200        2.19700       17.31600
H         -2.34700        0.89000       14.04000
H          2.81400       -0.12300       14.13300
H          3.26900       -0.50000       16.80000
H          0.31700        0.02600       13.61200
