76
tetramer_000_DKI1.pdb
C          0.80200       -0.53000       12.62900
C          0.40200        0.71200       13.20600
C          0.07900        1.76700       12.40900
C          0.16900        1.64000       10.92800
C          0.45600        0.52300       10.28100
C          0.81700       -0.65000       11.05900
C         -0.44600        3.08800       12.66800
C         -0.63800        3.70500       11.45600
N         -0.21300        2.87600       10.44600
O         -1.63200        5.84600       11.99500
C         -1.47700        4.87100       11.07400
O         -2.03900        4.94700       10.00600
O          0.79000       -1.80300       10.66800
O          1.36700       -1.40000       13.27200
H          0.36800        0.75300       14.29100
H         -0.71700        3.46400       13.64600
H         -1.03100        5.68700       12.74200
H         -0.17800        3.11900        9.46600
C          0.32500        0.42800        8.79900
C          0.90600        1.41300        7.94900
C          0.95300        1.21000        6.55400
C          0.23700        0.19100        5.88000
C         -0.38500       -0.71700        6.72500
C         -0.29500       -0.61800        8.14300
C          1.55700        2.66600        8.20100
C          2.03900        3.11200        6.99900
N          1.70900        2.21700        6.01900
O          3.50300        4.92700        7.49900
C          2.64700        4.40300        6.63100
O          2.36100        4.97300        5.59200
O         -1.15400       -1.76200        6.31300
O         -0.87800       -1.63500        8.85500
H          1.62500        3.19300        9.14000
H          3.78400        4.27200        8.17200
H          1.86200        2.38700        5.03800
H         -0.76900       -2.13700        5.49300
H         -1.25700       -2.24100        8.19400
C          0.12800        0.20400        4.40100
C          1.28800        0.36100        3.58900
C          1.21500        0.13400        2.19900
C          0.00000        0.00000        1.48200
C         -1.12800       -0.06000        2.28900
C         -1.04800       -0.01100        3.70900
C          2.65900        0.66300        3.88200
C          3.35600        0.51500        2.71400
N          2.49400        0.16100        1.71300
O          5.67000        0.50600        3.29700
C          4.76200        0.82000        2.38400
O          5.06600        1.35300        1.33100
O         -2.40700       -0.15300        1.83300
O         -2.22800       -0.19500        4.38300
H          3.07600        0.97700        4.82700
H          5.31500       -0.09900        3.98300
H          2.76300        0.10700        0.74400
H         -2.42200       -0.73300        1.04200
H         -2.91100       -0.31200        3.69700
C          0.00000        0.00000        0.00000
C          0.88500       -0.84700       -0.72800
C          0.70900       -1.02900       -2.11500
C         -0.14100       -0.22600       -2.91600
C         -0.92900        0.65900       -2.19400
C         -0.88900        0.72300       -0.77200
C          1.97800       -1.69200       -0.34000
C          2.34200       -2.40300       -1.45200
N          1.55600       -2.03000       -2.50700
O          3.77900       -4.15300       -0.69900
C          3.48000       -3.31400       -1.68200
O          4.12300       -3.28000       -2.71600
O         -1.79700        1.55400       -2.74000
O         -1.80500        1.55600       -0.18400
H          2.45600       -1.74700        0.62500
H          3.06200       -4.21800       -0.03300
H          1.71300       -2.34000       -3.45200
H         -2.22900        1.14300       -3.52000
H         -2.30600        1.96100       -0.91500
H         -0.17300       -0.29700       -3.99700
