78
000 
C 17.3090000   12.6020000   27.7630000  
C 17.5270000   13.3050000   28.9930000  
C 17.4760000   14.6850000   28.8740000  
C 17.2190000   15.3510000   27.6890000  
C 17.0180000   14.6820000   26.4600000  
C 16.9680000   13.2710000   26.5330000  
C 17.7790000   15.6850000   29.7990000  
C 17.6700000   16.9410000   29.2560000  
N 17.3000000   16.7810000   27.9150000  
O 17.8810000   18.0500000   31.3250000  
C 17.7640000   18.2340000   29.9750000  
O 17.7600000   19.3090000   29.4660000  
O 16.7080000   12.5320000   25.3600000  
O 17.5340000   11.2470000   27.8440000  
H 17.9040000   12.8250000   29.9080000  
H 18.0990000   15.5590000   30.8320000  
H 17.8210000   17.1010000   31.4310000  
H 17.2690000   17.4920000   27.2340000  
H 16.3620000   13.1200000   24.6740000  
H 17.1030000   10.7230000   27.1340000  
C 16.7520000   15.3160000   25.2010000  
C 17.7290000   15.3760000   24.1840000  
C 17.4570000   15.9800000   23.0130000  
C 16.2870000   16.6110000   22.6240000  
C 15.2630000   16.6030000   23.6460000  
C 15.4900000   15.9170000   24.9160000  
C 19.0970000   14.9040000   24.0440000  
C 19.6310000   15.4260000   22.8610000  
N 18.5500000   15.9940000   22.2080000  
O 21.7250000   14.4300000   23.0920000  
C 21.0440000   15.3080000   22.4130000  
O 21.5160000   15.9440000   21.4610000  
O 13.9570000   16.9540000   23.4130000  
O 14.4890000   15.7680000   25.8020000  
H 19.6830000   14.4190000   24.8500000  
H 21.2670000   14.0900000   23.8440000  
H 18.5450000   16.2950000   21.2540000  
H 13.8950000   16.9240000   22.4120000  
H 13.6530000   16.0180000   25.4640000  
C 15.9350000   16.9890000   21.2020000  
C 14.8750000   16.3290000   20.4250000  
C 14.6110000   16.7270000   19.1730000  
C 15.2090000   17.7940000   18.4530000  
C 16.1450000   18.5640000   19.2130000  
C 16.4940000   18.1560000   20.5320000  
C 13.8940000   15.3040000   20.7940000  
C 13.0640000   15.1050000   19.7130000  
N 13.5020000   15.9650000   18.7240000  
O 11.8110000   13.3670000   20.7280000  
C 11.9240000   14.1410000   19.6350000  
O 11.2550000   13.9770000   18.6400000  
O 16.7410000   19.6080000   18.6290000  
O 17.4740000   18.8610000   21.2220000  
H 13.8490000   14.8690000   21.7610000  
H 12.4280000   13.7130000   21.3200000  
H 13.1290000   16.1240000   17.7780000  
H 16.2310000   19.7340000   17.7510000  
H 18.1120000   19.1550000   20.5290000  
C 14.8110000   18.0260000   17.0440000  
C 14.2190000   19.1760000   16.6260000  
C 14.0870000   19.5410000   15.2610000  
C 14.4630000   18.6640000   14.1720000  
C 15.1130000   17.4800000   14.5270000  
C 15.1930000   17.1230000   15.9510000  
C 13.7880000   20.3560000   17.4070000  
C 13.1810000   21.2620000   16.4960000  
N 13.4530000   20.7630000   15.1970000  
O 12.3490000   22.7820000   18.1290000  
C 12.5740000   22.5950000   16.7700000  
O 12.3730000   23.4390000   15.9610000  
O 15.4200000   16.6040000   13.5080000  
O 15.8400000   16.0350000   16.3220000  
H 13.9010000   20.4680000   18.4400000  
H 12.4730000   21.9250000   18.5200000  
H 13.0280000   21.0660000   14.3580000  
H 15.6030000   15.7380000   13.9090000  
H 15.9420000   16.0400000   17.2680000  
H 14.3500000   19.0420000   13.1520000  
