78
000 
C 10.5260000   16.2980000   17.0740000  
C 10.8960000   15.5800000   15.9070000  
C 12.2120000   15.0770000   15.8350000  
C 13.1740000   15.3090000   16.8380000  
C 12.8110000   15.9360000   18.0700000  
C 11.4520000   16.4480000   18.1750000  
C 12.7960000   14.1000000   14.9150000  
C 14.0070000   13.7240000   15.4320000  
N 14.2640000   14.4830000   16.6010000  
O 14.4490000   12.0660000   13.8400000  
C 14.9180000   12.6660000   14.9610000  
O 15.9810000   12.3680000   15.5180000  
O 11.0750000   16.9810000   19.3700000  
O  9.3340000   16.9120000   17.2150000  
H 10.2620000   15.4640000   14.9820000  
H 12.4530000   13.7750000   13.9430000  
H 13.6420000   12.6320000   13.6450000  
H 15.1050000   14.4490000   17.1590000  
H 11.8700000   16.9830000   19.9370000  
H  9.5960000   17.5990000   17.8450000  
C 13.8100000   16.0280000   19.2050000  
C 14.9890000   16.7640000   18.9930000  
C 15.9390000   16.9060000   19.9700000  
C 15.6970000   16.4420000   21.3080000  
C 14.5800000   15.6300000   21.5340000  
C 13.6800000   15.3620000   20.4750000  
C 15.4960000   17.5110000   17.8840000  
C 16.7160000   18.0580000   18.2070000  
N 17.0370000   17.6810000   19.5390000  
O 17.1300000   19.0930000   16.1580000  
C 17.6260000   18.8300000   17.4100000  
O 18.6230000   19.3200000   17.9280000  
O 14.4460000   15.0190000   22.7140000  
O 12.6460000   14.5220000   20.7130000  
H 14.8140000   17.5940000   17.0170000  
H 16.2270000   18.6910000   16.1870000  
H 17.7650000   17.9660000   20.1720000  
H 15.2050000   15.2930000   23.1960000  
H 12.8120000   13.8940000   21.3590000  
C 16.6300000   16.8000000   22.3660000  
C 16.1980000   17.6930000   23.3240000  
C 16.9720000   17.9340000   24.4130000  
C 18.2580000   17.3640000   24.6050000  
C 18.7980000   16.6440000   23.5110000  
C 17.9680000   16.3430000   22.4570000  
C 14.9780000   18.4870000   23.3960000  
C 15.0730000   19.1260000   24.6450000  
N 16.3690000   18.9610000   25.1690000  
O 12.7610000   19.6980000   24.6170000  
C 13.9330000   19.7840000   25.3090000  
O 14.0430000   20.3710000   26.3770000  
O 20.1170000   16.3530000   23.4880000  
O 18.4750000   15.5710000   21.4700000  
H 14.0630000   18.3960000   22.8260000  
H 13.0360000   19.1180000   23.9100000  
H 16.8690000   19.4880000   25.8640000  
H 20.5220000   16.4000000   24.4040000  
H 19.3310000   15.2200000   21.8260000  
C 18.9970000   17.7790000   25.8590000  
C 18.6170000   17.2980000   27.0990000  
C 19.2150000   17.7240000   28.2520000  
C 20.1220000   18.8060000   28.2800000  
C 20.5240000   19.2790000   27.0320000  
C 20.0600000   18.7390000   25.8200000  
C 17.8090000   16.1790000   27.4390000  
C 17.8690000   16.0450000   28.8310000  
N 18.7030000   17.0720000   29.3420000  
O 16.6840000   13.9370000   28.9160000  
C 17.2660000   14.9460000   29.6150000  
O 17.3980000   14.8900000   30.8760000  
O 21.3710000   20.3420000   27.0000000  
O 20.6510000   19.1110000   24.6370000  
H 17.3690000   15.5180000   26.7150000  
H 16.7910000   14.2830000   28.0020000  
H 18.9090000   17.3540000   30.2710000  
H 21.0990000   20.9680000   26.2600000  
H 20.0920000   18.6600000   23.9080000  
H 20.6750000   19.1640000   29.1840000  
