78
000 
C 10.3050000   16.3830000   26.7770000  
C  9.0560000   16.5060000   26.1680000  
C  8.9150000   16.8880000   24.7780000  
C 10.0360000   16.9480000   24.0400000  
C 11.3540000   16.7400000   24.4690000  
C 11.4450000   16.4710000   25.8850000  
C  7.7940000   17.3420000   24.0070000  
C  8.2730000   17.6560000   22.7510000  
N  9.6690000   17.3710000   22.7750000  
O  6.1180000   18.0150000   21.8290000  
C  7.4020000   17.9700000   21.5900000  
O  7.8840000   18.2140000   20.4800000  
O 12.6340000   16.3860000   26.4450000  
O 10.4530000   16.1950000   28.1310000  
H  8.2060000   16.4470000   26.8290000  
H  6.7170000   17.3200000   24.3100000  
H  6.0800000   17.8190000   22.7540000  
H 10.2700000   17.3670000   21.9530000  
H 13.2070000   15.9020000   25.8210000  
H 11.4000000   16.0630000   28.2750000  
C 12.5700000   16.8320000   23.6310000  
C 13.6320000   17.6820000   23.9590000  
C 14.8390000   17.6510000   23.2410000  
C 15.1540000   16.7950000   22.2020000  
C 14.0400000   15.9090000   21.8070000  
C 12.8010000   16.0270000   22.4760000  
C 13.7590000   18.7470000   24.9100000  
C 15.0140000   19.2460000   24.7750000  
N 15.7090000   18.5920000   23.6930000  
O 14.8030000   20.7130000   26.6710000  
C 15.6040000   20.2050000   25.7270000  
O 16.7880000   20.4380000   25.6120000  
O 14.2750000   14.9420000   20.8360000  
O 11.7730000   15.2710000   22.1090000  
H 13.0770000   19.0150000   25.7410000  
H 13.9210000   20.3800000   26.4970000  
H 16.4960000   18.8810000   23.2120000  
H 15.1480000   15.2040000   20.3660000  
H 12.0710000   14.6680000   21.4390000  
C 16.5310000   16.8180000   21.5390000  
C 17.6090000   15.9310000   21.8260000  
C 18.8110000   15.9660000   21.1430000  
C 19.1040000   16.9380000   20.1400000  
C 18.1040000   17.9510000   19.9990000  
C 16.7940000   17.8280000   20.5670000  
C 17.8070000   14.9910000   22.8890000  
C 19.1120000   14.4950000   22.7160000  
N 19.7610000   15.1020000   21.6630000  
O 18.9770000   12.9600000   24.5280000  
C 19.7860000   13.5360000   23.6260000  
O 20.9850000   13.1910000   23.5700000  
O 18.4080000   19.1290000   19.2950000  
O 15.7910000   18.7550000   20.4400000  
H 17.0740000   14.7780000   23.7330000  
H 18.1560000   13.4540000   24.5370000  
H 20.7350000   15.0880000   21.3740000  
H 19.3700000   19.0480000   19.0390000  
H 15.9360000   19.4260000   19.6990000  
C 20.4710000   16.8770000   19.5270000  
C 20.8950000   16.2490000   18.3380000  
C 22.1690000   16.2640000   17.9300000  
C 23.2040000   16.9510000   18.5020000  
C 22.8670000   17.6380000   19.7030000  
C 21.5600000   17.5710000   20.2270000  
C 20.1550000   15.5300000   17.3560000  
C 21.1170000   15.0970000   16.3750000  
N 22.3820000   15.4770000   16.7680000  
O 19.6370000   13.9260000   14.6610000  
C 20.8700000   14.3190000   15.0610000  
O 21.7610000   14.0930000   14.2520000  
O 23.8530000   18.1250000   20.4720000  
O 21.3520000   18.1610000   21.4310000  
H 19.1180000   15.4690000   17.2980000  
H 19.0380000   14.0040000   15.4480000  
H 23.2380000   15.4530000   16.1960000  
H 23.4190000   18.3590000   21.3080000  
H 20.4240000   18.0510000   21.7300000  
H 24.1970000   16.8390000   18.1980000  
