78
000 
C 17.6910000   12.0440000   16.1480000  
C 17.1720000   12.6980000   15.0260000  
C 16.7040000   14.0510000   15.2510000  
C 16.7560000   14.6080000   16.4490000  
C 17.2840000   13.9610000   17.5830000  
C 17.7710000   12.6950000   17.4250000  
C 16.1340000   15.0340000   14.3580000  
C 15.7370000   16.1730000   15.0850000  
N 16.0800000   15.9000000   16.4460000  
O 14.8230000   17.3660000   13.2980000  
C 15.1170000   17.4150000   14.6260000  
O 14.8210000   18.4090000   15.2900000  
O 18.3950000   12.0150000   18.4790000  
O 18.1170000   10.7360000   16.0460000  
H 17.1510000   12.1840000   14.0230000  
H 15.9200000   14.8080000   13.3510000  
H 15.2420000   16.5720000   12.9720000  
H 15.7480000   16.3910000   17.2770000  
H 18.7410000   12.6660000   19.1490000  
H 18.2690000   10.4260000   16.9620000  
C 17.0430000   14.5460000   18.9340000  
C 15.8110000   14.8530000   19.5220000  
C 15.6650000   15.7540000   20.5410000  
C 16.7910000   16.3740000   21.1630000  
C 18.0620000   15.9250000   20.7130000  
C 18.1930000   15.1370000   19.5530000  
C 14.4610000   14.3790000   19.2610000  
C 13.6410000   15.0430000   20.1190000  
N 14.3680000   16.0250000   20.8330000  
O 11.7340000   13.7940000   19.3590000  
C 12.1510000   14.8170000   20.1090000  
O 11.3850000   15.5280000   20.7690000  
O 19.2060000   16.2900000   21.3850000  
O 19.4780000   14.9010000   19.0350000  
H 14.1800000   13.7510000   18.4960000  
H 12.5370000   13.4960000   18.9060000  
H 14.0370000   16.7100000   21.4710000  
H 19.0350000   16.8980000   22.1080000  
H 20.1350000   15.2830000   19.7060000  
C 16.6330000   17.2100000   22.3500000  
C 15.9300000   16.7240000   23.4570000  
C 15.5860000   17.6230000   24.4240000  
C 15.7620000   19.0310000   24.3750000  
C 16.5760000   19.4860000   23.3510000  
C 16.9790000   18.6190000   22.2810000  
C 15.4960000   15.4480000   23.8480000  
C 15.0250000   15.6320000   25.1700000  
N 14.9880000   17.0470000   25.5070000  
O 14.2090000   13.3390000   25.6160000  
C 14.4410000   14.5960000   26.0890000  
O 14.1510000   14.8870000   27.2480000  
O 17.0500000   20.7410000   23.4170000  
O 17.7080000   19.0730000   21.2610000  
H 15.5430000   14.4950000   23.2400000  
H 14.7170000   13.1940000   24.7920000  
H 14.4410000   17.5300000   26.2290000  
H 16.8110000   21.1440000   24.2520000  
H 18.0200000   20.0290000   21.3120000  
C 15.4560000   19.9260000   25.5050000  
C 15.8900000   19.6810000   26.8160000  
C 15.5910000   20.6020000   27.7700000  
C 14.7830000   21.7090000   27.5500000  
C 14.2910000   21.9590000   26.2460000  
C 14.6310000   21.0660000   25.2150000  
C 16.8970000   18.8380000   27.3640000  
C 16.9270000   19.0880000   28.7280000  
N 16.2280000   20.3030000   28.9360000  
O 18.3850000   17.3440000   29.5790000  
C 17.5800000   18.4110000   29.8460000  
O 17.3990000   18.8510000   30.9770000  
O 13.4460000   23.0230000   26.0170000  
O 14.0740000   21.2420000   23.9200000  
H 17.3220000   17.9630000   26.8950000  
H 18.5590000   17.3080000   28.6060000  
H 16.0600000   20.8070000   29.7540000  
H 12.9840000   22.9710000   25.1620000  
H 14.6640000   20.8370000   23.3350000  
H 14.4790000   22.4030000   28.3030000  
