78
000 
C 18.9590000   16.2690000   28.8660000  
C 18.7740000   14.9450000   29.3290000  
C 18.0570000   14.0620000   28.5380000  
C 17.6940000   14.4990000   27.2770000  
C 17.9490000   15.7260000   26.6840000  
C 18.6440000   16.6090000   27.5150000  
C 17.6030000   12.6510000   28.6460000  
C 17.1110000   12.2660000   27.3940000  
N 17.2250000   13.4270000   26.5810000  
O 16.6760000   10.0160000   27.9310000  
C 16.6820000   10.9160000   26.9620000  
O 16.4320000   10.6900000   25.7870000  
O 19.0390000   17.8940000   26.9630000  
O 19.5770000   17.2040000   29.6240000  
H 19.0470000   14.5300000   30.3520000  
H 17.5350000   12.0950000   29.5780000  
H 16.7970000   10.7360000   28.5600000  
H 16.9320000   13.4770000   25.5880000  
H 18.6250000   18.1490000   26.1170000  
H 19.8020000   17.9970000   29.0950000  
C 17.4590000   16.1900000   25.3180000  
C 16.1350000   16.5990000   25.1200000  
C 15.6570000   16.7730000   23.8500000  
C 16.4200000   16.5990000   22.6960000  
C 17.8210000   16.4530000   22.9010000  
C 18.3180000   16.1620000   24.2090000  
C 14.9750000   16.7920000   25.9840000  
C 13.9000000   17.1090000   25.2320000  
N 14.2780000   17.0030000   23.8640000  
O 12.3460000   17.6790000   26.9150000  
C 12.5350000   17.5940000   25.5800000  
O 11.6780000   17.8240000   24.7430000  
O 18.6490000   16.4160000   21.8740000  
O 19.5400000   15.5980000   24.4330000  
H 15.0570000   16.9860000   27.0200000  
H 13.2590000   17.4150000   27.1210000  
H 13.6920000   17.0340000   23.0050000  
H 18.1740000   16.8340000   21.1130000  
H 19.4770000   15.1680000   25.3230000  
C 15.8920000   16.9280000   21.3710000  
C 16.0870000   18.2160000   20.7200000  
C 15.6370000   18.4330000   19.4240000  
C 14.7960000   17.5490000   18.7170000  
C 14.5480000   16.3180000   19.3630000  
C 15.1350000   16.0070000   20.6610000  
C 16.8760000   19.4180000   21.0130000  
C 16.8240000   20.2800000   19.8990000  
N 15.9940000   19.6450000   18.9410000  
O 17.7750000   22.2490000   20.7810000  
C 17.2890000   21.6740000   19.6810000  
O 17.1770000   22.2270000   18.6140000  
O 13.8070000   15.3660000   18.7490000  
O 15.0240000   14.7070000   21.1610000  
H 17.5790000   19.5860000   21.8350000  
H 17.7140000   21.5940000   21.4780000  
H 15.8320000   20.0800000   18.0290000  
H 13.6600000   15.8180000   17.9000000  
H 14.6460000   14.2660000   20.3760000  
C 14.0920000   17.9660000   17.4620000  
C 14.4360000   17.4650000   16.1790000  
C 13.7430000   17.8170000   15.0430000  
C 12.7640000   18.7790000   15.0810000  
C 12.3860000   19.3070000   16.3230000  
C 13.0270000   18.9300000   17.4810000  
C 15.6210000   16.7260000   15.7690000  
C 15.4550000   16.5950000   14.4100000  
N 14.2110000   17.1650000   13.9510000  
O 17.2640000   15.2980000   14.2670000  
C 16.3240000   15.7600000   13.4870000  
O 16.2580000   15.6210000   12.2830000  
O 11.4080000   20.1650000   16.4940000  
O 12.6270000   19.3620000   18.7210000  
H 16.3490000   16.2530000   16.4440000  
H 16.9750000   15.3390000   15.1680000  
H 13.8640000   17.1000000   12.9940000  
H 11.4920000   20.4070000   17.4140000  
H 13.3350000   19.2120000   19.3750000  
H 12.2730000   19.1330000   14.1410000  
