78
000 
C 10.3870000   18.6060000   26.4380000  
C  9.2040000   17.9290000   26.1650000  
C  9.3230000   17.1220000   25.0070000  
C 10.5060000   16.9550000   24.3000000  
C 11.6530000   17.5680000   24.5880000  
C 11.6200000   18.4230000   25.7480000  
C  8.3470000   16.2940000   24.4160000  
C  9.0680000   15.4750000   23.5230000  
N 10.4370000   15.8310000   23.4960000  
O  7.1040000   14.2410000   22.9200000  
C  8.3970000   14.5370000   22.6080000  
O  8.9020000   13.9450000   21.6350000  
O 12.6750000   19.1230000   26.2330000  
O 10.3020000   19.5150000   27.4350000  
H  8.3170000   18.1350000   26.7080000  
H  7.2420000   16.4070000   24.4420000  
H  6.9730000   14.7950000   23.7050000  
H 11.0740000   15.6250000   22.7470000  
H 13.3950000   19.0510000   25.5100000  
H 11.2460000   19.8030000   27.5690000  
C 12.9180000   17.4650000   23.8370000  
C 12.9840000   17.5840000   22.4000000  
C 14.1620000   17.3450000   21.7080000  
C 15.2900000   16.8890000   22.3330000  
C 15.2750000   16.6980000   23.7180000  
C 14.1480000   17.0290000   24.4550000  
C 12.0750000   17.9950000   21.3640000  
C 12.7120000   17.8490000   20.1150000  
N 14.0560000   17.4920000   20.3300000  
O 10.8300000   18.6840000   18.9280000  
C 12.0580000   18.1190000   18.8440000  
O 12.4620000   17.8060000   17.7690000  
O 16.4380000   16.3790000   24.4040000  
O 14.1860000   16.7070000   25.8050000  
H 11.0210000   18.2960000   21.5350000  
H 10.6280000   18.6030000   19.8950000  
H 14.8060000   17.2830000   19.6300000  
H 17.0680000   15.9460000   23.7490000  
H 14.9870000   16.2930000   26.1110000  
C 16.5680000   16.5490000   21.6070000  
C 17.3420000   17.5150000   20.9280000  
C 18.5530000   17.1210000   20.3890000  
C 19.0730000   15.7990000   20.3570000  
C 18.3360000   14.8260000   21.0860000  
C 17.0850000   15.1990000   21.6740000  
C 17.2010000   18.8940000   20.5780000  
C 18.2970000   19.2390000   19.8010000  
N 19.2310000   18.1920000   19.8450000  
O 17.7200000   21.5330000   19.6450000  
C 18.6080000   20.5790000   19.2420000  
O 19.5440000   20.9500000   18.5780000  
O 18.8000000   13.5770000   21.1420000  
O 16.3790000   14.1910000   22.2420000  
H 16.3190000   19.4660000   20.7370000  
H 17.1550000   21.2420000   20.3600000  
H 20.2350000   18.3690000   19.6530000  
H 19.7130000   13.5590000   20.7690000  
H 16.9440000   13.3940000   22.4310000  
C 20.4890000   15.6410000   19.8810000  
C 21.5350000   15.3450000   20.7290000  
C 22.7980000   15.2700000   20.2140000  
C 23.0900000   15.3360000   18.8360000  
C 22.0080000   15.5170000   17.9670000  
C 20.7300000   15.6860000   18.4750000  
C 21.6550000   15.2780000   22.1040000  
C 23.0310000   15.0540000   22.4400000  
N 23.7500000   15.0270000   21.2220000  
O 22.6390000   14.9110000   24.8250000  
C 23.5490000   14.8530000   23.8180000  
O 24.7730000   14.7290000   24.0660000  
O 22.2010000   15.7430000   16.6090000  
O 19.6450000   16.0340000   17.6950000  
H 20.8290000   15.3470000   22.7810000  
H 21.7980000   14.8380000   24.3880000  
H 24.7530000   14.8990000   21.0300000  
H 21.3430000   15.6270000   16.1900000  
H 18.9140000   16.2820000   18.3720000  
H 24.1210000   15.2850000   18.4170000  
