78
000 
C 22.0130000   13.0900000   19.4270000  
C 22.1130000   11.8350000   20.0950000  
C 21.2590000   11.6550000   21.2080000  
C 20.4110000   12.6360000   21.6190000  
C 20.2440000   13.8890000   21.0010000  
C 21.1010000   14.0970000   19.8360000  
C 20.9480000   10.4760000   22.0180000  
C 19.8850000   10.9010000   22.8190000  
N 19.4860000   12.2140000   22.5320000  
O 19.4450000    8.7210000   23.9430000  
C 19.1250000   10.0290000   23.8260000  
O 18.3420000   10.5200000   24.6440000  
O 21.1050000   15.2100000   19.0280000  
O 22.8870000   13.3000000   18.3520000  
H 22.7710000   11.0800000   19.7320000  
H 21.3740000    9.5030000   21.9640000  
H 19.9350000    8.6290000   23.1710000  
H 18.6480000   12.6530000   22.8560000  
H 20.2760000   15.6140000   19.0380000  
H 22.6220000   14.1840000   18.0750000  
C 19.0300000   14.7470000   21.2250000  
C 18.8930000   15.4840000   22.3950000  
C 17.7520000   16.2740000   22.6320000  
C 16.6220000   16.2690000   21.7520000  
C 16.7030000   15.4280000   20.5990000  
C 17.9060000   14.6400000   20.3660000  
C 19.7420000   15.7060000   23.5470000  
C 19.1810000   16.7710000   24.2770000  
N 17.8810000   17.0260000   23.7880000  
O 21.0300000   17.1600000   25.6360000  
C 19.7280000   17.4970000   25.4140000  
O 19.1300000   18.2550000   26.1660000  
O 15.6380000   15.3350000   19.7830000  
O 18.1190000   13.8900000   19.2720000  
H 20.8130000   15.3470000   23.7200000  
H 21.3120000   16.6190000   24.8910000  
H 17.2640000   17.8340000   23.9750000  
H 15.2060000   16.1660000   19.9190000  
H 19.0870000   13.6640000   19.2830000  
C 15.4390000   17.2490000   22.0090000  
C 15.0560000   18.1550000   20.9680000  
C 13.9660000   18.9410000   21.1200000  
C 13.2320000   19.0330000   22.3180000  
C 13.5480000   18.1270000   23.3460000  
C 14.6290000   17.2210000   23.2180000  
C 15.5800000   18.4120000   19.6150000  
C 14.9240000   19.5370000   19.1630000  
N 13.8240000   19.7730000   20.0310000  
O 16.3530000   20.0600000   17.2840000  
C 15.2510000   20.3560000   18.0020000  
O 14.5640000   21.2850000   17.6090000  
O 12.7510000   17.9810000   24.4840000  
O 14.8590000   16.2690000   24.2340000  
H 16.4150000   17.9210000   19.1870000  
H 16.8150000   19.2640000   17.6120000  
H 12.9920000   20.3330000   19.8860000  
H 12.2970000   18.8470000   24.5920000  
H 14.0830000   16.4330000   24.8690000  
C 12.2390000   20.1080000   22.4760000  
C 10.8940000   19.7530000   22.4700000  
C  9.9000000   20.7450000   22.4920000  
C 10.1960000   22.0830000   22.5180000  
C 11.5140000   22.4460000   22.5010000  
C 12.5600000   21.4610000   22.5160000  
C 10.1970000   18.4860000   22.3820000  
C  8.8680000   18.7960000   22.4620000  
N  8.6380000   20.1500000   22.5330000  
O  8.0190000   16.5570000   22.6670000  
C  7.7450000   17.8750000   22.6140000  
O  6.6170000   18.2930000   22.9060000  
O 11.8590000   23.7170000   22.5750000  
O 13.8790000   21.8750000   22.4640000  
H 10.6910000   17.5320000   22.4880000  
H  8.9300000   16.5700000   22.3380000  
H  7.7890000   20.6400000   22.8460000  
H 12.8420000   23.7730000   22.6150000  
H 14.4960000   21.1640000   22.7140000  
H  9.3730000   22.7980000   22.6480000  
