78
000 
C 12.9690000   19.0820000   28.5830000  
C 12.8010000   17.8920000   29.3300000  
C 12.9310000   16.6800000   28.6740000  
C 13.4150000   16.7060000   27.4070000  
C 13.7310000   17.7950000   26.6020000  
C 13.4330000   19.0780000   27.2170000  
C 12.8740000   15.3270000   29.2030000  
C 13.3500000   14.5070000   28.1610000  
N 13.6990000   15.3640000   27.1010000  
O 13.2980000   12.5140000   29.3820000  
C 13.7480000   13.0280000   28.2370000  
O 14.4290000   12.3640000   27.4760000  
O 13.6580000   20.1570000   26.4270000  
O 12.8850000   20.3060000   29.2200000  
H 12.5060000   18.0070000   30.3560000  
H 12.9120000   15.0220000   30.2070000  
H 12.6950000   13.1720000   29.7930000  
H 14.0790000   15.1140000   26.1950000  
H 14.1710000   19.8220000   25.6980000  
H 12.8390000   21.0260000   28.4900000  
C 14.3280000   17.6250000   25.2410000  
C 13.5870000   16.9260000   24.2760000  
C 14.0750000   16.6670000   23.0420000  
C 15.3450000   17.1840000   22.5610000  
C 16.1170000   17.9250000   23.5080000  
C 15.6190000   18.1550000   24.8650000  
C 12.2950000   16.2060000   24.2290000  
C 12.1270000   15.6050000   23.0120000  
N 13.2120000   15.9170000   22.2280000  
O 10.1670000   14.4220000   23.5790000  
C 11.0030000   14.8020000   22.6010000  
O 10.8070000   14.4330000   21.4600000  
O 17.4150000   18.3290000   23.2090000  
O 16.5190000   18.6610000   25.7540000  
H 11.6060000   16.1170000   25.0380000  
H 10.5880000   14.5260000   24.4560000  
H 13.3630000   15.7940000   21.2290000  
H 17.5320000   18.2470000   22.2450000  
H 16.2130000   18.4900000   26.6670000  
C 16.0130000   16.8260000   21.2410000  
C 16.4100000   17.8030000   20.3430000  
C 16.9980000   17.3690000   19.1860000  
C 17.3940000   16.0480000   18.8370000  
C 17.0820000   15.0690000   19.7930000  
C 16.5240000   15.4770000   21.0210000  
C 16.2390000   19.2720000   20.2220000  
C 16.8430000   19.5850000   18.9410000  
N 17.2890000   18.4130000   18.3010000  
O 16.3370000   21.9880000   19.2090000  
C 16.8730000   20.9760000   18.3590000  
O 17.1410000   21.3250000   17.1770000  
O 17.5030000   13.7960000   19.5840000  
O 16.2550000   14.5560000   22.0040000  
H 15.9900000   20.0270000   20.9810000  
H 16.3710000   21.6550000   20.0860000  
H 17.4990000   18.3050000   17.3310000  
H 18.2000000   13.8190000   18.8580000  
H 16.7630000   13.7830000   21.8100000  
C 18.1070000   15.6970000   17.5310000  
C 19.4330000   16.1020000   17.1600000  
C 20.0060000   15.6310000   16.0100000  
C 19.3430000   14.7900000   15.0860000  
C 18.0160000   14.4420000   15.3190000  
C 17.4260000   14.8890000   16.5300000  
C 20.3760000   17.1180000   17.6810000  
C 21.4210000   17.1880000   16.8080000  
N 21.1580000   16.2310000   15.7770000  
O 22.5990000   18.9950000   17.9100000  
C 22.5800000   18.1050000   16.9000000  
O 23.5750000   18.0690000   16.1780000  
O 17.2150000   13.9250000   14.3480000  
O 16.0230000   14.7860000   16.7060000  
H 20.3620000   17.6730000   18.5600000  
H 21.8510000   18.7520000   18.4340000  
H 21.8300000   16.0030000   15.0670000  
H 16.6990000   13.2820000   14.8820000  
H 15.8150000   15.1200000   17.6010000  
H 19.8890000   14.5570000   14.1290000  
