78
000 
C 13.7310000   17.8000000   14.8780000  
C 12.9070000   16.7600000   14.3780000  
C 12.4760000   15.7950000   15.3100000  
C 12.7900000   15.9720000   16.6290000  
C 13.5920000   16.9840000   17.2270000  
C 14.0400000   17.9350000   16.2650000  
C 11.5640000   14.6810000   15.3000000  
C 11.5400000   14.1010000   16.5920000  
N 12.2880000   14.9610000   17.4270000  
O 10.1990000   12.1240000   16.2340000  
C 10.8230000   12.9460000   17.1470000  
O 10.8870000   12.5690000   18.2880000  
O 14.8460000   18.9440000   16.5980000  
O 14.2990000   18.6390000   13.9950000  
H 12.5980000   16.6880000   13.3020000  
H 11.0430000   14.3940000   14.4460000  
H 10.1250000   12.5680000   15.4300000  
H 12.4730000   14.7640000   18.3870000  
H 14.8900000   19.0200000   17.5260000  
H 15.0420000   19.0760000   14.4600000  
C 14.0170000   16.9160000   18.7260000  
C 14.8340000   15.9010000   19.1630000  
C 15.2820000   15.8290000   20.4930000  
C 15.0440000   16.7630000   21.5620000  
C 14.1700000   17.8170000   21.0630000  
C 13.6470000   17.8760000   19.7300000  
C 15.5300000   14.8530000   18.5010000  
C 16.4210000   14.2460000   19.4280000  
N 16.2360000   14.8770000   20.6720000  
O 17.2220000   12.6200000   17.9900000  
C 17.3180000   13.1120000   19.2080000  
O 18.0580000   12.6110000   20.0700000  
O 13.7610000   18.8780000   21.8880000  
O 12.8210000   18.9150000   19.3690000  
H 15.5180000   14.6390000   17.4490000  
H 16.6260000   13.1770000   17.5260000  
H 16.8180000   14.6420000   21.4580000  
H 14.1610000   18.9750000   22.7820000  
H 12.6030000   19.4010000   20.2120000  
C 15.7470000   16.7910000   22.9250000  
C 17.1730000   16.7710000   23.0090000  
C 17.7470000   16.7280000   24.2510000  
C 17.0080000   16.9410000   25.4310000  
C 15.5760000   16.9360000   25.3580000  
C 14.9600000   16.8140000   24.0970000  
C 18.2710000   16.9220000   22.0580000  
C 19.4380000   16.8490000   22.8490000  
N 19.1170000   16.9170000   24.2190000  
O 20.9280000   17.0670000   21.0320000  
C 20.8540000   16.8590000   22.3520000  
O 21.7920000   16.7390000   23.1220000  
O 14.7800000   16.9820000   26.4510000  
O 13.5950000   16.8120000   23.9660000  
H 18.3060000   17.1050000   20.9720000  
H 20.0540000   16.8190000   20.7520000  
H 19.7280000   17.0410000   24.9870000  
H 15.2430000   17.5700000   27.0840000  
H 13.1480000   17.0840000   24.8320000  
C 17.7350000   17.1080000   26.7330000  
C 17.9390000   18.4160000   27.2900000  
C 18.3400000   18.4770000   28.5770000  
C 18.6860000   17.3600000   29.3750000  
C 18.5660000   16.0850000   28.8220000  
C 18.0520000   15.9580000   27.4770000  
C 17.6780000   19.7010000   26.7150000  
C 17.9930000   20.5380000   27.7860000  
N 18.3820000   19.7840000   28.9330000  
O 17.5780000   22.5460000   26.5560000  
C 18.1560000   22.0380000   27.5870000  
O 18.6860000   22.7220000   28.4960000  
O 18.9190000   14.9980000   29.4540000  
O 17.9450000   14.7320000   26.9390000  
H 17.4230000   19.9390000   25.6260000  
H 17.2780000   21.8390000   25.9460000  
H 18.6300000   20.0800000   29.8330000  
H 18.6550000   14.2960000   28.8050000  
H 17.4790000   14.8780000   26.1270000  
H 19.0490000   17.3820000   30.3800000  
