78
000 
C 21.0080000   14.3000000   16.6620000  
C 20.1710000   13.5650000   15.7620000  
C 18.7720000   13.6810000   15.8470000  
C 18.2480000   14.3050000   16.8940000  
C 18.9970000   15.0440000   17.8200000  
C 20.3970000   15.0060000   17.7160000  
C 17.7690000   12.8850000   15.1680000  
C 16.6060000   13.0880000   15.9330000  
N 16.9090000   14.1200000   16.8770000  
O 15.2770000   11.4190000   15.0360000  
C 15.2780000   12.5290000   15.7990000  
O 14.2850000   12.9310000   16.3630000  
O 21.2360000   15.8000000   18.4240000  
O 22.4010000   14.3130000   16.5230000  
H 20.6120000   12.8990000   14.9960000  
H 18.0200000   12.1560000   14.4040000  
H 16.2290000   11.1050000   15.0000000  
H 16.2870000   14.6760000   17.3870000  
H 20.6540000   16.4030000   18.9730000  
H 22.7690000   15.0430000   17.0930000  
C 18.2700000   15.6430000   19.0230000  
C 17.4080000   14.8910000   19.8730000  
C 16.5910000   15.5040000   20.7690000  
C 16.6240000   16.8520000   21.1540000  
C 17.5810000   17.5800000   20.4090000  
C 18.3980000   17.0500000   19.3840000  
C 16.8510000   13.4960000   19.8300000  
C 15.7930000   13.4320000   20.7210000  
N 15.6930000   14.6790000   21.4150000  
O 15.0050000   11.1420000   20.2830000  
C 14.9620000   12.2680000   21.0630000  
O 14.1290000   12.4260000   21.8800000  
O 17.5740000   18.9590000   20.6740000  
O 19.0960000   17.9090000   18.6490000  
H 17.1860000   12.6610000   19.1980000  
H 15.7290000   11.2720000   19.7070000  
H 15.0120000   14.8920000   22.1220000  
H 17.2080000   19.2570000   21.5130000  
H 18.7500000   18.8260000   18.8300000  
C 15.8580000   17.5470000   22.2540000  
C 16.1170000   17.2490000   23.6270000  
C 15.2910000   17.7400000   24.5530000  
C 14.2170000   18.6070000   24.3520000  
C 13.9440000   18.9080000   22.9970000  
C 14.7990000   18.3950000   21.9810000  
C 17.1720000   16.4930000   24.2330000  
C 16.9360000   16.5800000   25.6100000  
N 15.7760000   17.3500000   25.7750000  
O 18.8510000   15.3570000   26.2220000  
C 17.7530000   16.0460000   26.6580000  
O 17.4680000   16.3430000   27.8340000  
O 12.8140000   19.5280000   22.6640000  
O 14.4460000   18.6400000   20.6370000  
H 17.9530000   15.9110000   23.7460000  
H 18.6110000   15.0790000   25.3050000  
H 15.3480000   17.6210000   26.7080000  
H 12.0560000   19.3200000   23.3220000  
H 13.5190000   18.9950000   20.6950000  
C 13.3270000   18.9490000   25.4890000  
C 13.1830000   20.2310000   25.9670000  
C 12.3710000   20.6030000   27.0100000  
C 11.5730000   19.7260000   27.7090000  
C 11.7200000   18.3940000   27.2960000  
C 12.5110000   17.9940000   26.1870000  
C 13.8920000   21.3940000   25.4700000  
C 13.4820000   22.4830000   26.2880000  
N 12.5870000   21.9270000   27.2300000  
O 14.7770000   24.0490000   25.1770000  
C 13.9300000   23.8860000   26.1600000  
O 13.5120000   24.8330000   26.8760000  
O 10.9190000   17.4590000   27.9110000  
O 12.4560000   16.6860000   25.7720000  
H 14.7010000   21.3530000   24.7490000  
H 14.8300000   23.1610000   24.7460000  
H 12.1610000   22.5620000   27.9450000  
H 11.0240000   16.6240000   27.4130000  
H 13.0960000   16.6070000   25.0340000  
H 11.1510000   19.9350000   28.6650000  
