78
000 
C 19.5830000   10.7250000   23.4170000  
C 20.4310000   10.8400000   24.5250000  
C 20.5650000   12.1050000   25.1260000  
C 19.6500000   13.0640000   24.8270000  
C 18.7690000   13.0070000   23.6520000  
C 18.7460000   11.7810000   23.0170000  
C 21.4110000   12.6480000   26.1960000  
C 21.0860000   14.0090000   26.3080000  
N 19.9700000   14.2360000   25.4890000  
O 22.8900000   14.6830000   27.6900000  
C 21.6460000   15.0120000   27.1820000  
O 21.1250000   16.0360000   27.4610000  
O 17.8530000   11.5160000   22.0700000  
O 19.5970000    9.6150000   22.6020000  
H 21.0820000    9.9890000   24.8220000  
H 22.0730000   12.1580000   26.8490000  
H 22.9270000   13.8040000   27.3380000  
H 19.3320000   14.9990000   25.5070000  
H 17.4760000   12.3830000   21.8160000  
H 18.9640000    9.8230000   21.8610000  
C 17.9070000   14.1850000   23.2630000  
C 18.5360000   15.4090000   22.7970000  
C 17.7580000   16.4510000   22.3850000  
C 16.3430000   16.4370000   22.4350000  
C 15.6850000   15.2890000   22.9750000  
C 16.4600000   14.1420000   23.2650000  
C 19.8660000   15.8110000   22.5810000  
C 19.8380000   16.9680000   21.8690000  
N 18.4940000   17.3500000   21.6540000  
O 22.2510000   16.9420000   21.4640000  
C 21.0540000   17.6530000   21.3210000  
O 20.9760000   18.8070000   20.8940000  
O 14.3710000   15.3230000   23.2550000  
O 15.7690000   13.0840000   23.7230000  
H 20.7110000   15.1950000   22.8200000  
H 22.0520000   16.0760000   21.8880000  
H 18.1500000   18.1200000   21.1340000  
H 14.0080000   16.2010000   23.3790000  
H 15.1070000   13.5410000   24.1820000  
C 15.5790000   17.6110000   21.8460000  
C 15.4260000   17.6140000   20.4570000  
C 14.4780000   18.4270000   19.8890000  
C 13.7510000   19.4310000   20.5800000  
C 14.1120000   19.5970000   21.9740000  
C 14.9480000   18.6450000   22.5760000  
C 15.5610000   16.4700000   19.4970000  
C 14.8400000   16.7960000   18.3240000  
N 14.1340000   17.9690000   18.6310000  
O 15.1650000   14.7760000   17.0870000  
C 14.5910000   16.0120000   17.0860000  
O 13.8770000   16.4300000   16.1910000  
O 13.6440000   20.6410000   22.7110000  
O 15.1060000   18.7710000   23.9000000  
H 16.1030000   15.5260000   19.7370000  
H 15.7770000   14.8000000   17.8090000  
H 13.4380000   18.4760000   18.0890000  
H 13.2090000   21.2470000   22.1180000  
H 14.6000000   19.5510000   24.2080000  
C 12.6540000   20.3230000   19.9500000  
C 11.3090000   20.1840000   20.3830000  
C 10.2640000   20.9940000   19.9120000  
C 10.4450000   21.9450000   18.8950000  
C 11.7670000   22.0730000   18.4310000  
C 12.8520000   21.2570000   18.9020000  
C 10.7000000   19.2330000   21.3580000  
C  9.3480000   19.4550000   21.3100000  
N  9.0720000   20.5590000   20.5190000  
O  8.8550000   17.7200000   22.8550000  
C  8.3520000   18.7060000   22.1140000  
O  7.1770000   18.9000000   22.0780000  
O 12.0670000   23.0360000   17.4960000  
O 14.1030000   21.3360000   18.2710000  
H 11.1840000   18.4210000   21.8690000  
H  9.8040000   17.6280000   22.7620000  
H  8.1930000   20.9310000   20.1950000  
H 13.0710000   23.0250000   17.4620000  
H 14.7820000   20.7330000   18.5640000  
H  9.5610000   22.4760000   18.5260000  
