78
000 
C 21.8210000   14.6590000   25.9100000  
C 22.0180000   13.2250000   25.9530000  
C 21.0350000   12.5190000   25.2340000  
C 19.9980000   13.1480000   24.6500000  
C 19.8630000   14.5350000   24.4630000  
C 20.8240000   15.3080000   25.0990000  
C 20.8620000   11.1380000   25.0600000  
C 19.5640000   10.9690000   24.6140000  
N 19.0490000   12.2480000   24.2170000  
O 19.6810000    8.5830000   24.5320000  
C 18.9260000    9.7090000   24.3090000  
O 17.7710000    9.6980000   23.9070000  
O 20.7260000   16.6830000   24.9600000  
O 22.6400000   15.4750000   26.5520000  
H 22.7390000   12.7010000   26.5000000  
H 21.5580000   10.3500000   25.1760000  
H 20.5630000    8.7580000   24.9520000  
H 18.1060000   12.4340000   23.8490000  
H 19.8430000   16.8990000   24.5880000  
H 22.4060000   16.4270000   26.4940000  
C 18.7090000   15.2270000   23.6910000  
C 17.7650000   16.0380000   24.3780000  
C 16.7990000   16.6500000   23.6450000  
C 16.5210000   16.5560000   22.2580000  
C 17.4130000   15.7100000   21.6100000  
C 18.4740000   15.0730000   22.2690000  
C 17.4070000   16.1090000   25.7570000  
C 16.3390000   17.0390000   25.8380000  
N 15.9190000   17.2680000   24.4870000  
O 16.2460000   17.3510000   28.1540000  
C 15.6630000   17.5270000   26.9960000  
O 14.6350000   18.1320000   26.9300000  
O 17.2240000   15.5460000   20.2840000  
O 19.2220000   14.1770000   21.5680000  
H 17.9780000   15.8390000   26.5380000  
H 16.9210000   16.6960000   27.9000000  
H 15.0220000   17.6450000   24.1080000  
H 16.4980000   16.1370000   19.9770000  
H 19.9220000   13.8910000   22.1940000  
C 15.5190000   17.3690000   21.5500000  
C 15.8780000   18.3500000   20.5660000  
C 14.9220000   19.0960000   19.8730000  
C 13.5670000   19.0980000   20.2590000  
C 13.2520000   18.0990000   21.2790000  
C 14.1620000   17.3000000   21.9670000  
C 17.1990000   18.6750000   20.0770000  
C 16.9140000   19.5410000   18.9870000  
N 15.5370000   19.9450000   18.9670000  
O 19.0510000   19.4180000   18.1440000  
C 17.8330000   19.9830000   17.9980000  
O 17.5740000   20.6870000   17.0370000  
O 11.9090000   17.8800000   21.5530000  
O 13.6640000   16.4560000   22.9200000  
H 18.1530000   18.2840000   20.3730000  
H 18.9210000   18.8300000   18.8950000  
H 15.1440000   20.6300000   18.3430000  
H 11.4370000   18.3160000   20.8170000  
H 12.6630000   16.5710000   22.8580000  
C 12.5640000   19.8430000   19.4610000  
C 11.5990000   19.1040000   18.7480000  
C 10.5940000   19.7520000   18.0580000  
C 10.4340000   21.1370000   17.9840000  
C 11.3800000   21.9090000   18.7140000  
C 12.4080000   21.2500000   19.4790000  
C 11.2710000   17.7040000   18.6920000  
C 10.2070000   17.5490000   17.8580000  
N  9.7780000   18.8420000   17.4060000  
O 10.1820000   15.1820000   18.1090000  
C  9.5960000   16.2370000   17.5390000  
O  8.6340000   16.2210000   16.7580000  
O 11.3390000   23.2790000   18.7190000  
O 13.0800000   22.0910000   20.3570000  
H 11.8880000   16.8920000   19.0900000  
H 10.7350000   15.4350000   18.8720000  
H  9.1170000   18.9610000   16.6780000  
H 12.1530000   23.6250000   19.1460000  
H 13.5320000   21.5710000   21.0520000  
H  9.7940000   21.7070000   17.3610000  
