78
000 
C 14.6570000   18.8350000   28.5790000  
C 14.4560000   17.8400000   29.5280000  
C 14.4350000   16.5550000   29.0090000  
C 14.6430000   16.3050000   27.6940000  
C 15.0360000   17.2560000   26.7940000  
C 15.0980000   18.5480000   27.3190000  
C 14.2940000   15.2540000   29.5670000  
C 14.5190000   14.2480000   28.5940000  
N 14.5470000   14.9510000   27.3430000  
O 14.6990000   12.3740000   30.0230000  
C 14.5890000   12.7830000   28.7760000  
O 14.8300000   12.0630000   27.8200000  
O 15.2850000   19.5480000   26.4620000  
O 14.6010000   20.1550000   28.9830000  
H 14.3900000   18.1110000   30.5210000  
H 14.1180000   15.1000000   30.5820000  
H 14.8490000   13.1910000   30.5070000  
H 14.7620000   14.5390000   26.4440000  
H 15.4260000   19.2310000   25.5850000  
H 14.5460000   20.6650000   28.1050000  
C 15.3430000   16.9680000   25.4050000  
C 14.3080000   16.5830000   24.5050000  
C 14.5830000   16.3980000   23.2020000  
C 15.7620000   16.7580000   22.5800000  
C 16.8440000   17.1340000   23.4220000  
C 16.6020000   17.2390000   24.8190000  
C 13.0090000   16.1240000   24.8040000  
C 12.5210000   15.6730000   23.5410000  
N 13.5590000   15.8120000   22.5460000  
O 10.3020000   15.1790000   24.2710000  
C 11.1860000   15.1020000   23.2490000  
O 10.8890000   14.7240000   22.1480000  
O 18.1070000   17.3320000   22.8370000  
O 17.6470000   17.7620000   25.5800000  
H 12.5690000   16.1650000   25.7750000  
H 10.7310000   15.8810000   24.7640000  
H 13.4940000   15.4800000   21.5540000  
H 18.0830000   16.6960000   22.1010000  
H 17.3870000   17.2950000   26.3900000  
C 15.9190000   16.6400000   21.1110000  
C 15.8860000   17.7670000   20.3530000  
C 16.1280000   17.7210000   19.0050000  
C 16.4460000   16.5370000   18.3210000  
C 16.3000000   15.3650000   19.0570000  
C 16.0460000   15.3760000   20.4590000  
C 15.7270000   19.1400000   20.7000000  
C 16.1730000   19.8990000   19.5540000  
N 16.4510000   18.9930000   18.5330000  
O 16.0040000   21.9320000   20.7120000  
C 16.3430000   21.3450000   19.5520000  
O 16.6990000   21.9150000   18.5390000  
O 16.4450000   14.1680000   18.4590000  
O 15.8470000   14.2170000   21.1560000  
H 15.4250000   19.5250000   21.7560000  
H 15.6880000   21.2050000   21.2330000  
H 16.8190000   19.2560000   17.6270000  
H 16.9440000   14.2570000   17.6100000  
H 15.8020000   13.5440000   20.4770000  
C 16.8020000   16.4890000   16.8910000  
C 18.1700000   16.5400000   16.4490000  
C 18.5260000   16.4830000   15.1220000  
C 17.5770000   16.3780000   14.1460000  
C 16.2200000   16.4620000   14.5780000  
C 15.8210000   16.4430000   15.9380000  
C 19.4480000   16.6070000   17.1530000  
C 20.4760000   16.5450000   16.2710000  
N 19.9110000   16.3780000   14.9630000  
O 22.0130000   17.1240000   17.8960000  
C 21.9110000   16.7000000   16.5990000  
O 22.8630000   16.5210000   15.9080000  
O 15.2260000   16.4650000   13.5960000  
O 14.4890000   16.5190000   16.2120000  
H 19.4690000   16.6100000   18.1810000  
H 21.1350000   17.5140000   18.1270000  
H 20.4280000   16.2780000   14.0950000  
H 14.3500000   16.3640000   14.0020000  
H 14.4350000   16.6500000   17.1830000  
H 17.7780000   16.3920000   13.0790000  
