78
000 
C  9.4090000   18.5200000   18.4720000  
C  8.4500000   18.3350000   19.4970000  
C  8.8800000   18.0110000   20.8000000  
C 10.1520000   17.7790000   21.1040000  
C 11.2000000   17.7990000   20.1300000  
C 10.7520000   18.2160000   18.7870000  
C  8.1350000   17.9750000   22.0760000  
C  9.1440000   17.7370000   23.0710000  
N 10.3860000   17.5020000   22.4240000  
O  7.6680000   17.7790000   24.9030000  
C  8.9730000   17.6010000   24.5430000  
O  9.8460000   17.2830000   25.3820000  
O 11.5860000   18.2530000   17.7240000  
O  9.1190000   18.7050000   17.1930000  
H  7.3610000   18.4460000   19.4100000  
H  7.0380000   18.0650000   22.2570000  
H  7.1850000   17.8510000   24.0640000  
H 11.2370000   17.2360000   22.8320000  
H 12.4990000   18.3040000   17.9750000  
H  9.9830000   18.5210000   16.7530000  
C 12.5540000   17.4950000   20.4820000  
C 12.9840000   16.2040000   20.8110000  
C 14.2210000   15.9720000   21.3130000  
C 15.1990000   16.9780000   21.5750000  
C 14.7430000   18.2760000   21.2170000  
C 13.4600000   18.5250000   20.7460000  
C 12.2890000   14.9540000   20.8130000  
C 13.1520000   13.9820000   21.3880000  
N 14.3500000   14.6710000   21.6810000  
O 11.5710000   12.2270000   21.4210000  
C 12.8430000   12.5740000   21.7100000  
O 13.6630000   11.8030000   22.1300000  
O 15.6630000   19.2730000   21.3730000  
O 13.1030000   19.9050000   20.6300000  
H 11.2880000   14.7270000   20.5570000  
H 11.1380000   13.1020000   21.3160000  
H 15.1370000   14.2020000   22.1540000  
H 16.3400000   19.0120000   22.0360000  
H 13.6840000   20.5160000   21.0230000  
C 16.5010000   16.7670000   22.1960000  
C 17.4720000   15.9900000   21.4970000  
C 18.7880000   15.9130000   21.9820000  
C 19.2460000   16.4500000   23.1930000  
C 18.2180000   17.0850000   23.9050000  
C 16.9340000   17.3290000   23.4470000  
C 17.5490000   15.3860000   20.2290000  
C 18.8150000   14.9320000   20.0470000  
N 19.6200000   15.3050000   21.1190000  
O 18.1050000   13.6350000   18.2130000  
C 19.1630000   13.9290000   19.0210000  
O 20.2430000   13.4010000   18.9370000  
O 18.4480000   17.8260000   25.0440000  
O 15.9530000   17.9560000   24.1940000  
H 16.6580000   15.1430000   19.6320000  
H 17.3090000   14.1330000   18.4220000  
H 20.5530000   14.9220000   21.3470000  
H 19.3640000   17.8460000   25.2620000  
H 16.3420000   18.1730000   25.0620000  
C 20.6490000   16.3120000   23.7440000  
C 21.7360000   17.0090000   23.2160000  
C 22.9670000   16.9770000   23.7770000  
C 23.2060000   16.4100000   25.0080000  
C 22.1380000   15.5800000   25.5220000  
C 20.8950000   15.4670000   24.8700000  
C 21.7990000   17.9680000   22.1130000  
C 23.0580000   18.6260000   22.2470000  
N 23.7730000   17.9310000   23.1700000  
O 22.7840000   20.2130000   20.4960000  
C 23.5910000   19.7520000   21.4870000  
O 24.6700000   20.3170000   21.7260000  
O 22.4310000   14.8160000   26.6350000  
O 19.9460000   14.5840000   25.3940000  
H 21.0340000   18.1640000   21.3350000  
H 22.2170000   19.4450000   20.3950000  
H 24.7600000   17.9110000   23.2640000  
H 21.6850000   14.1870000   26.7960000  
H 19.2030000   14.7290000   24.7750000  
H 24.2200000   16.4320000   25.5380000  
