78
000 
C 13.3140000   14.8730000   15.1500000  
C 14.2990000   14.2880000   14.3650000  
C 15.5260000   13.8990000   14.9840000  
C 15.5840000   14.1590000   16.3420000  
C 14.6310000   14.7360000   17.1800000  
C 13.4280000   15.1040000   16.5610000  
C 16.7910000   13.3060000   14.6290000  
C 17.5600000   13.2560000   15.8140000  
N 16.6620000   13.6130000   16.8790000  
O 19.6030000   12.6890000   14.6350000  
C 18.9970000   12.9800000   15.8400000  
O 19.6130000   12.9960000   16.8650000  
O 12.4380000   15.7810000   17.2270000  
O 12.1350000   15.1640000   14.5180000  
H 14.1490000   14.1010000   13.2840000  
H 17.1670000   12.9930000   13.6240000  
H 18.9430000   12.6230000   13.9620000  
H 16.9080000   13.6200000   17.9010000  
H 12.4970000   15.6630000   18.1760000  
H 11.4760000   15.6060000   15.1110000  
C 14.9940000   15.1590000   18.5950000  
C 16.0440000   16.0890000   18.9080000  
C 16.3120000   16.3230000   20.2190000  
C 15.7300000   15.8200000   21.3560000  
C 14.6400000   14.9240000   21.1100000  
C 14.3280000   14.5580000   19.7340000  
C 16.9460000   16.8220000   18.0420000  
C 17.8200000   17.4690000   18.9520000  
N 17.4030000   17.1610000   20.2900000  
O 19.2590000   18.3060000   17.3450000  
C 18.9580000   18.3590000   18.6590000  
O 19.5400000   19.0650000   19.4800000  
O 13.9090000   14.3300000   22.0910000  
O 13.2670000   13.6880000   19.5730000  
H 16.9570000   16.7360000   16.9390000  
H 18.7260000   17.5840000   17.0160000  
H 17.8930000   17.4570000   21.1330000  
H 14.3430000   14.4590000   22.9460000  
H 12.8330000   13.5100000   20.4320000  
C 16.0790000   16.2870000   22.7200000  
C 15.8250000   17.6670000   23.0410000  
C 16.0810000   18.1990000   24.2830000  
C 16.4880000   17.4410000   25.3680000  
C 16.6440000   16.0220000   25.0920000  
C 16.3940000   15.4800000   23.8290000  
C 15.1730000   18.7700000   22.3640000  
C 15.1340000   19.9070000   23.2070000  
N 15.6230000   19.4900000   24.4310000  
O 14.0830000   21.3440000   21.6910000  
C 14.5230000   21.2170000   22.9400000  
O 14.4240000   22.1520000   23.7120000  
O 17.1330000   15.2190000   26.0650000  
O 16.3140000   14.1300000   23.7610000  
H 14.8500000   18.8430000   21.3690000  
H 14.2390000   20.4840000   21.2990000  
H 15.6630000   20.0270000   25.3090000  
H 17.4360000   15.7770000   26.8020000  
H 16.6440000   13.7730000   24.6280000  
C 16.8300000   18.1140000   26.6460000  
C 15.8180000   18.3950000   27.5860000  
C 16.1400000   19.0790000   28.7240000  
C 17.4670000   19.5830000   29.0590000  
C 18.4290000   19.2610000   28.1370000  
C 18.1570000   18.5170000   27.0190000  
C 14.5350000   17.7930000   27.7610000  
C 14.1090000   18.2950000   28.9900000  
N 15.0140000   19.1640000   29.5000000  
O 12.1430000   17.1280000   29.2330000  
C 12.7710000   18.0830000   29.6360000  
O 12.3920000   18.6930000   30.6410000  
O 19.7300000   19.5000000   28.5490000  
O 19.2180000   18.1550000   26.2390000  
H 13.9500000   17.2120000   26.9900000  
H 12.6520000   16.7450000   28.5170000  
H 14.8620000   19.8790000   30.2230000  
H 20.3150000   19.0300000   27.9570000  
H 18.7870000   17.6020000   25.5870000  
H 17.6630000   20.2940000   29.8220000  
