78
000 
C 22.6530000   13.2110000   21.5940000  
C 22.3820000   11.9320000   22.1670000  
C 21.1300000   11.7550000   22.7690000  
C 20.1470000   12.6830000   22.5570000  
C 20.3340000   13.8970000   21.9670000  
C 21.6270000   14.1650000   21.5160000  
C 20.4620000   10.7110000   23.5590000  
C 19.1510000   11.0710000   23.6100000  
N 19.0190000   12.3250000   23.1250000  
O 18.4800000    9.1760000   24.7060000  
C 18.0620000   10.3410000   24.2530000  
O 16.9610000   10.7500000   24.4200000  
O 21.9050000   15.4940000   21.2160000  
O 23.8910000   13.4320000   21.0670000  
H 23.2000000   11.2050000   22.2540000  
H 20.8520000    9.8250000   23.9120000  
H 19.3820000    9.0460000   24.5360000  
H 18.1220000   12.7000000   23.0000000  
H 21.1160000   15.9950000   21.3540000  
H 23.9400000   14.4000000   20.8760000  
C 19.2350000   14.8530000   21.8860000  
C 18.8890000   15.7600000   22.9450000  
C 17.7140000   16.4400000   22.9340000  
C 16.8230000   16.4250000   21.8630000  
C 17.1610000   15.6520000   20.7310000  
C 18.3960000   14.8420000   20.7080000  
C 19.6700000   16.1580000   24.0450000  
C 18.8580000   17.1030000   24.7560000  
N 17.7130000   17.2690000   23.9800000  
O 20.3950000   17.4020000   26.4510000  
C 19.2910000   17.8920000   25.9620000  
O 18.7520000   18.8090000   26.4890000  
O 16.2580000   15.4290000   19.7700000  
O 18.7760000   14.0910000   19.5940000  
H 20.6320000   15.6620000   24.3120000  
H 20.4340000   16.5340000   26.0070000  
H 16.9190000   17.8400000   24.2380000  
H 15.4030000   15.7540000   20.0340000  
H 19.7280000   13.7380000   19.5520000  
C 15.6290000   17.2830000   21.9360000  
C 15.4110000   18.2340000   20.9370000  
C 14.2310000   18.9420000   20.8590000  
C 13.1490000   18.8900000   21.7820000  
C 13.4060000   18.0190000   22.8770000  
C 14.5720000   17.2040000   22.9360000  
C 16.2610000   18.7480000   19.8460000  
C 15.4370000   19.6880000   19.1760000  
N 14.1780000   19.8520000   19.8130000  
O 16.9860000   20.1960000   17.6010000  
C 15.7800000   20.4000000   17.9420000  
O 15.1240000   21.2490000   17.4120000  
O 12.4580000   17.8260000   23.8060000  
O 14.8170000   16.3580000   23.9750000  
H 17.2460000   18.4280000   19.5500000  
H 17.3630000   19.6880000   18.3460000  
H 13.3950000   20.3300000   19.5170000  
H 11.6770000   18.3980000   23.5620000  
H 13.9660000   15.9880000   24.2790000  
C 11.9570000   19.8230000   21.7180000  
C 10.7620000   19.3720000   21.2260000  
C  9.7660000   20.2570000   20.9050000  
C  9.9290000   21.6130000   21.1550000  
C 11.0700000   22.1160000   21.7680000  
C 12.1480000   21.1920000   22.0380000  
C 10.2570000   18.0950000   20.8130000  
C  9.0060000   18.2260000   20.2740000  
N  8.7270000   19.5910000   20.2880000  
O  8.3940000   15.9060000   20.0370000  
C  7.9650000   17.1430000   20.0070000  
O  6.7840000   17.3640000   19.8540000  
O 11.1800000   23.4660000   22.0800000  
O 13.3260000   21.7140000   22.4630000  
H 10.7560000   17.1180000   21.0340000  
H  9.3540000   15.9520000   20.1400000  
H  7.9400000   19.9980000   19.8700000  
H 12.0970000   23.6700000   22.3350000  
H 13.9640000   20.9700000   22.6450000  
H  9.0830000   22.2890000   20.9680000  
