78
000 
C  8.5270000   16.0330000   22.7820000  
C  7.9710000   15.9070000   21.4930000  
C  8.8050000   15.9710000   20.3930000  
C 10.1240000   16.3170000   20.5600000  
C 10.7930000   16.4300000   21.8260000  
C  9.9140000   16.2670000   22.9440000  
C  8.6000000   15.8600000   18.9470000  
C  9.8100000   16.1470000   18.3020000  
N 10.7960000   16.3060000   19.3590000  
O  8.8940000   16.3080000   16.1030000  
C 10.0290000   16.3720000   16.8640000  
O 11.1220000   16.7010000   16.4310000  
O 10.3680000   16.5550000   24.1610000  
O  7.7040000   15.9500000   23.9190000  
H  6.9710000   15.6470000   21.3340000  
H  7.5580000   15.6910000   18.5410000  
H  8.2740000   16.0260000   16.7450000  
H 11.7590000   16.6430000   19.1800000  
H 11.2510000   16.1510000   24.2800000  
H  8.2700000   16.2390000   24.6360000  
C 12.2960000   16.6660000   21.9320000  
C 12.9160000   17.7540000   21.3430000  
C 14.2920000   17.8690000   21.4950000  
C 15.2080000   16.9590000   22.0920000  
C 14.5550000   15.7870000   22.5500000  
C 13.0970000   15.6300000   22.4600000  
C 12.4590000   18.9880000   20.7900000  
C 13.5650000   19.8350000   20.7230000  
N 14.6890000   19.1120000   21.0410000  
O 12.5430000   21.7030000   19.7860000  
C 13.6690000   21.2360000   20.3460000  
O 14.7230000   21.8470000   20.4340000  
O 15.2690000   14.8420000   23.2600000  
O 12.5810000   14.4350000   22.9850000  
H 11.3880000   19.0920000   20.5240000  
H 11.9900000   20.9130000   19.5610000  
H 15.6220000   19.4310000   20.9010000  
H 16.1080000   15.2710000   23.3720000  
H 13.3570000   13.9490000   23.4990000  
C 16.7400000   17.1050000   22.2080000  
C 17.4090000   17.0950000   23.5290000  
C 18.7400000   17.1430000   23.6240000  
C 19.5970000   17.2570000   22.5130000  
C 18.9690000   17.4470000   21.2430000  
C 17.5720000   17.2920000   21.1130000  
C 16.9780000   16.8420000   24.8490000  
C 18.0490000   16.8250000   25.7400000  
N 19.1850000   16.9280000   24.9150000  
O 16.8640000   16.4010000   27.7620000  
C 18.0620000   16.5750000   27.1930000  
O 19.0260000   16.4640000   27.9380000  
O 19.6330000   17.6680000   20.0940000  
O 17.0040000   17.2980000   19.8650000  
H 15.9040000   16.6990000   25.1520000  
H 16.1970000   16.4520000   27.0640000  
H 20.1700000   16.8090000   25.1150000  
H 20.5490000   17.9370000   20.3590000  
H 17.8270000   17.3760000   19.2860000  
C 21.0550000   17.1190000   22.6240000  
C 21.7190000   16.0030000   21.9790000  
C 23.0780000   15.8510000   21.9860000  
C 23.8960000   16.7320000   22.6810000  
C 23.2700000   17.7320000   23.4280000  
C 21.8340000   18.0290000   23.3040000  
C 21.1120000   14.8560000   21.4030000  
C 22.1940000   14.0140000   21.0870000  
N 23.4490000   14.6380000   21.3630000  
O 20.9340000   12.7020000   19.7410000  
C 22.1110000   12.8110000   20.2810000  
O 22.9890000   12.0370000   20.0130000  
O 24.0300000   18.4650000   24.3220000  
O 21.2750000   18.9970000   24.0610000  
H 20.0550000   14.6240000   21.1860000  
H 20.4880000   13.5060000   20.0030000  
H 24.3630000   14.4550000   21.0330000  
H 23.4100000   18.8080000   25.0020000  
H 20.3410000   19.0730000   23.7440000  
H 24.9960000   16.5650000   22.9330000  
