78
000 
C 15.5090000   14.6750000   14.8910000  
C 16.7300000   14.0140000   14.4460000  
C 17.5690000   13.6230000   15.4540000  
C 17.2520000   13.7920000   16.7850000  
C 16.1640000   14.4750000   17.3310000  
C 15.2760000   14.8920000   16.2700000  
C 18.7680000   12.8260000   15.3830000  
C 19.1290000   12.5610000   16.7020000  
N 18.0960000   13.0780000   17.5330000  
O 21.1100000   11.1900000   16.3160000  
C 20.2600000   11.7830000   17.2050000  
O 20.5000000   11.5590000   18.3960000  
O 14.1350000   15.6250000   16.6290000  
O 14.6340000   15.0230000   13.9360000  
H 16.9810000   13.8050000   13.4590000  
H 19.3020000   12.4520000   14.4380000  
H 20.8660000   11.6430000   15.4840000  
H 18.0940000   13.0360000   18.5420000  
H 14.2770000   15.7590000   17.5650000  
H 13.9190000   15.5660000   14.3570000  
C 16.0490000   14.8740000   18.7620000  
C 17.0280000   15.7230000   19.2870000  
C 16.9890000   16.1050000   20.6000000  
C 15.9800000   15.8060000   21.5600000  
C 14.8870000   15.0930000   20.9570000  
C 15.0140000   14.5190000   19.6270000  
C 18.2160000   16.4160000   18.6970000  
C 18.7700000   17.2220000   19.6840000  
N 18.0120000   17.0430000   20.8590000  
O 20.6110000   17.9430000   18.2830000  
C 20.0490000   17.9550000   19.5660000  
O 20.5600000   18.4830000   20.5080000  
O 13.7640000   14.8830000   21.7110000  
O 14.0340000   13.6850000   19.1620000  
H 18.6420000   16.2550000   17.6900000  
H 19.8600000   17.6840000   17.7090000  
H 18.2090000   17.3620000   21.8110000  
H 13.7710000   15.4540000   22.4430000  
H 13.2800000   13.7720000   19.7920000  
C 15.9550000   16.3600000   22.9370000  
C 15.7730000   17.7360000   23.0290000  
C 15.4270000   18.2320000   24.2710000  
C 15.4520000   17.6030000   25.5160000  
C 15.8590000   16.2640000   25.4730000  
C 16.0100000   15.5760000   24.1730000  
C 15.6010000   18.8430000   22.0620000  
C 15.0490000   19.9350000   22.7700000  
N 15.0990000   19.5770000   24.1530000  
O 14.8820000   21.4540000   20.9340000  
C 14.6350000   21.2400000   22.2280000  
O 14.1060000   22.1010000   22.9490000  
O 15.7940000   15.5010000   26.5980000  
O 15.9930000   14.1980000   24.0780000  
H 15.7850000   18.7900000   21.0240000  
H 15.2600000   20.5990000   20.5980000  
H 15.1030000   20.2930000   24.8890000  
H 15.3180000   16.0250000   27.2560000  
H 16.0240000   13.8240000   24.9580000  
C 15.2490000   18.2580000   26.8820000  
C 14.0690000   18.9250000   27.2090000  
C 13.8270000   19.5980000   28.3670000  
C 14.7920000   19.7380000   29.4210000  
C 16.0540000   19.0720000   29.1890000  
C 16.2280000   18.3890000   27.9470000  
C 12.8550000   18.9180000   26.3790000  
C 11.8480000   19.5700000   27.1750000  
N 12.4270000   19.9260000   28.3740000  
O 10.2670000   19.2010000   25.4410000  
C 10.4380000   19.7100000   26.6610000  
O  9.5200000   20.1990000   27.3450000  
O 17.0350000   19.1470000   30.1570000  
O 17.3940000   17.7380000   27.8090000  
H 12.8080000   18.7650000   25.2830000  
H 11.1690000   19.0110000   25.2460000  
H 11.9650000   20.2420000   29.2270000  
H 17.7680000   18.5370000   29.8930000  
H 17.4970000   17.5130000   26.8590000  
H 14.6200000   20.4430000   30.2820000  
