78
000 
C 16.2720000   14.7650000   28.6700000  
C 15.1820000   15.1870000   29.4710000  
C 14.0580000   15.6530000   28.7820000  
C 13.9980000   15.6600000   27.4650000  
C 15.0660000   15.3450000   26.6180000  
C 16.2170000   14.8620000   27.2760000  
C 12.8950000   16.4070000   29.2740000  
C 12.1950000   16.7010000   28.1170000  
N 12.8640000   16.1790000   27.0570000  
O 10.5080000   17.7780000   29.2680000  
C 10.9910000   17.5430000   28.0570000  
O 10.5650000   17.8570000   26.9840000  
O 17.3040000   14.6420000   26.5540000  
O 17.4000000   14.2860000   29.2350000  
H 15.2730000   15.1130000   30.5560000  
H 12.7930000   16.8470000   30.2710000  
H 11.0880000   17.1910000   29.7920000  
H 12.5860000   16.2810000   26.1380000  
H 17.4380000   15.3690000   25.9600000  
H 18.0250000   14.1980000   28.4830000  
C 15.0240000   15.5480000   25.1490000  
C 14.7560000   16.8470000   24.5680000  
C 14.8800000   17.1230000   23.2060000  
C 15.1210000   16.1130000   22.2570000  
C 15.2680000   14.8090000   22.7780000  
C 15.2590000   14.5590000   24.1620000  
C 14.3730000   18.0500000   25.1990000  
C 14.1400000   18.9510000   24.1360000  
N 14.5390000   18.4000000   22.9270000  
O 13.3650000   20.7350000   25.5750000  
C 13.6930000   20.3910000   24.3350000  
O 13.8420000   21.2400000   23.4540000  
O 15.5020000   13.7600000   21.8700000  
O 15.5490000   13.2780000   24.5020000  
H 14.0470000   18.1930000   26.2060000  
H 13.3190000   19.8580000   25.9760000  
H 14.3980000   18.8340000   22.0390000  
H 15.4080000   14.0940000   20.9880000  
H 15.5720000   12.8090000   23.6660000  
C 15.3030000   16.4420000   20.8460000  
C 16.3330000   17.3870000   20.5540000  
C 16.7240000   17.6310000   19.2740000  
C 16.1510000   16.9810000   18.1630000  
C 15.0950000   16.1250000   18.3920000  
C 14.6830000   15.8400000   19.7180000  
C 17.2610000   18.2130000   21.3300000  
C 18.0320000   18.8890000   20.3890000  
N 17.6240000   18.5820000   19.1340000  
O 19.6320000   19.7840000   21.9670000  
C 19.2200000   19.8030000   20.6680000  
O 19.6860000   20.5440000   19.8760000  
O 14.5810000   15.4300000   17.3850000  
O 13.6430000   14.9660000   19.8150000  
H 17.2820000   18.3740000   22.3930000  
H 18.9840000   19.1830000   22.3640000  
H 17.9050000   19.0310000   18.2760000  
H 14.9910000   15.7500000   16.5780000  
H 13.3750000   14.7630000   18.8920000  
C 16.7880000   17.1210000   16.8640000  
C 17.9370000   16.4050000   16.5450000  
C 18.5200000   16.5190000   15.3090000  
C 17.9320000   17.2810000   14.3440000  
C 16.6890000   17.9390000   14.5410000  
C 16.1920000   17.8490000   15.8470000  
C 18.6990000   15.4060000   17.2330000  
C 19.8230000   15.0650000   16.4560000  
N 19.6580000   15.6720000   15.1790000  
O 20.9600000   13.7110000   17.9390000  
C 21.0420000   14.2600000   16.7570000  
O 21.9630000   14.0410000   15.9500000  
O 16.1820000   18.6570000   13.4750000  
O 14.9780000   18.4370000   16.1000000  
H 18.3810000   15.0550000   18.2220000  
H 20.3220000   14.2310000   18.4250000  
H 20.3610000   15.6190000   14.4940000  
H 15.3440000   19.1090000   13.5880000  
H 14.8400000   19.0140000   15.3920000  
H 18.3500000   17.3060000   13.3950000  
