78
000 
C 22.0990000   12.7900000   20.3000000  
C 22.0890000   12.3180000   18.9520000  
C 21.0620000   12.8030000   18.1300000  
C 20.1500000   13.7450000   18.5830000  
C 20.2150000   14.3350000   19.8750000  
C 21.2150000   13.8110000   20.7430000  
C 20.6500000   12.4850000   16.7720000  
C 19.4930000   13.2600000   16.4140000  
N 19.1330000   13.9680000   17.5790000  
O 19.3250000   12.4730000   14.1780000  
C 18.7600000   13.2890000   15.1270000  
O 17.7780000   14.0090000   14.9690000  
O 21.2440000   14.2060000   22.0690000  
O 23.0030000   12.1710000   21.1520000  
H 22.7640000   11.5560000   18.5620000  
H 21.1690000   11.7040000   16.1910000  
H 20.0980000   12.0460000   14.6010000  
H 18.4510000   14.6730000   17.5890000  
H 20.5570000   14.8320000   22.1150000  
H 23.1490000   12.7020000   21.9360000  
C 18.9900000   15.1550000   20.3360000  
C 17.6980000   14.5750000   20.4500000  
C 16.6260000   15.2530000   21.0290000  
C 16.5980000   16.5610000   21.4870000  
C 17.8820000   17.1840000   21.3730000  
C 19.0430000   16.5010000   20.8770000  
C 17.1910000   13.2510000   20.2400000  
C 15.8590000   13.2570000   20.6580000  
N 15.4700000   14.4900000   21.0950000  
O 15.3970000   10.9510000   20.1830000  
C 14.9260000   12.1180000   20.6770000  
O 13.7860000   12.1520000   21.0190000  
O 18.0670000   18.5370000   21.5770000  
O 20.2000000   17.2550000   20.7130000  
H 17.7810000   12.3840000   20.0880000  
H 16.2870000   11.1560000   19.8920000  
H 14.5720000   14.9440000   21.3620000  
H 17.2350000   18.7030000   22.0150000  
H 20.1530000   18.1580000   21.0050000  
C 15.3430000   17.2170000   22.0070000  
C 15.3230000   17.6030000   23.3380000  
C 14.2040000   18.2030000   23.8890000  
C 13.0310000   18.5060000   23.1900000  
C 13.0090000   18.1020000   21.8370000  
C 14.1550000   17.5210000   21.2450000  
C 16.1760000   17.2910000   24.4990000  
C 15.6180000   17.8230000   25.6840000  
N 14.3880000   18.3650000   25.2840000  
O 17.4940000   17.5030000   27.1150000  
C 16.2350000   17.9100000   27.0260000  
O 15.6650000   18.4580000   27.9610000  
O 12.0210000   18.4710000   21.0490000  
O 14.1410000   17.2930000   19.8680000  
H 17.2370000   16.8610000   24.3670000  
H 17.8280000   17.3160000   26.2580000  
H 13.7010000   18.8830000   25.8680000  
H 11.3370000   18.9090000   21.6060000  
H 13.3840000   17.8060000   19.6000000  
C 11.8670000   19.2490000   23.8440000  
C 12.0130000   20.5630000   24.3760000  
C 10.9470000   21.2630000   24.8860000  
C  9.5930000   20.7860000   24.8130000  
C  9.4260000   19.4880000   24.2690000  
C 10.5320000   18.8060000   23.7620000  
C 13.1420000   21.3970000   24.4150000  
C 12.7710000   22.5210000   25.1820000  
N 11.3870000   22.4600000   25.4530000  
O 14.8840000   23.6740000   24.9350000  
C 13.6860000   23.6440000   25.5290000  
O 13.3560000   24.5240000   26.3120000  
O  8.1640000   18.9160000   24.2730000  
O 10.3330000   17.4980000   23.3860000  
H 14.1820000   21.1580000   24.0890000  
H 14.7990000   23.0080000   24.2500000  
H 10.8400000   23.0450000   26.1260000  
H  8.1990000   17.9760000   24.1530000  
H 10.9850000   16.8690000   23.6710000  
H  8.8180000   21.1790000   25.4530000  
