78
000 
C 20.1540000   10.5340000   20.5230000  
C 21.5280000   10.8870000   20.8180000  
C 21.7180000   12.1420000   21.3820000  
C 20.6830000   12.9350000   21.7220000  
C 19.3680000   12.7980000   21.3330000  
C 19.1040000   11.4860000   20.7490000  
C 22.8980000   12.8330000   21.7830000  
C 22.4720000   14.0180000   22.3560000  
N 21.0660000   14.0820000   22.3160000  
O 24.6860000   14.7440000   23.0750000  
C 23.3880000   15.0080000   22.9280000  
O 22.9430000   16.1130000   23.2470000  
O 17.8480000   11.1810000   20.4210000  
O 19.8210000    9.3020000   20.1780000  
H 22.3520000   10.1880000   20.5720000  
H 23.9230000   12.5670000   21.7520000  
H 24.8400000   13.8170000   22.9100000  
H 20.5120000   14.9490000   22.3810000  
H 17.3170000   11.9700000   20.6570000  
H 18.9590000    9.1080000   20.5440000  
C 18.2640000   13.7960000   21.5500000  
C 18.2230000   14.9270000   20.6660000  
C 17.3100000   15.8980000   20.8710000  
C 16.2290000   15.8460000   21.8550000  
C 16.2120000   14.6310000   22.5720000  
C 17.2300000   13.6350000   22.4750000  
C 19.0000000   15.4040000   19.5280000  
C 18.5280000   16.6120000   19.0880000  
N 17.4420000   16.9230000   19.9300000  
O 20.1520000   16.7730000   17.3810000  
C 19.0790000   17.3150000   17.9190000  
O 18.5580000   18.3150000   17.5310000  
O 15.2300000   14.4290000   23.4610000  
O 17.0890000   12.4160000   23.1460000  
H 19.7940000   14.8060000   19.1850000  
H 20.3880000   15.9560000   17.8420000  
H 16.8700000   17.7510000   19.8250000  
H 14.4530000   14.9670000   23.1630000  
H 16.1590000   12.3750000   23.5270000  
C 15.3350000   17.0240000   22.0330000  
C 13.9720000   16.9650000   21.6870000  
C 13.1750000   18.0370000   21.9630000  
C 13.6330000   19.2880000   22.3710000  
C 15.0360000   19.4120000   22.6210000  
C 15.8310000   18.2900000   22.4240000  
C 13.0370000   15.9440000   21.1940000  
C 11.7280000   16.4620000   21.1840000  
N 11.8620000   17.8130000   21.6870000  
O 10.6220000   14.5210000   20.2590000  
C 10.5210000   15.8470000   20.5920000  
O  9.4500000   16.3990000   20.3740000  
O 15.6590000   20.6100000   22.9830000  
O 17.2020000   18.5140000   22.5010000  
H 13.2340000   14.9270000   20.7870000  
H 11.4590000   14.3050000   20.5780000  
H 11.1070000   18.5800000   21.5560000  
H 14.9150000   21.2840000   23.0930000  
H 17.2520000   19.4080000   22.8630000  
C 12.7340000   20.4950000   22.4060000  
C 11.9410000   20.7770000   23.5200000  
C 11.1770000   21.9060000   23.5470000  
C 11.1750000   22.8750000   22.5770000  
C 11.8350000   22.5060000   21.3790000  
C 12.5600000   21.3170000   21.2550000  
C 11.7130000   20.0700000   24.7210000  
C 10.7180000   20.7690000   25.4460000  
N 10.4590000   21.9320000   24.7050000  
O 10.7950000   19.3050000   27.3560000  
C 10.1970000   20.4030000   26.8680000  
O  9.3720000   20.9900000   27.5520000  
O 11.7930000   23.3420000   20.3200000  
O 13.1720000   21.0420000   20.1030000  
H 12.1030000   19.1350000   25.0270000  
H 11.4420000   19.0610000   26.6580000  
H  9.9640000   22.7590000   24.9440000  
H 12.2950000   22.9790000   19.5790000  
H 13.6630000   20.1830000   20.2300000  
H 10.5670000   23.7100000   22.7510000  
