78
000 
C 19.1300000   12.7820000   27.7130000  
C 18.4740000   13.2030000   28.8180000  
C 17.4990000   14.2040000   28.6500000  
C 17.1250000   14.5800000   27.4080000  
C 17.6050000   14.0510000   26.2240000  
C 18.7080000   13.2500000   26.3850000  
C 16.7070000   14.8790000   29.5910000  
C 15.7570000   15.6530000   28.9060000  
N 16.0280000   15.4970000   27.5260000  
O 14.5360000   16.7030000   30.7110000  
C 14.6010000   16.4190000   29.4070000  
O 13.6970000   16.8370000   28.6650000  
O 19.4590000   12.8760000   25.2970000  
O 20.2670000   11.9650000   27.8860000  
H 18.7760000   12.7900000   29.8260000  
H 16.6190000   14.6810000   30.6340000  
H 15.3870000   16.3990000   31.0820000  
H 15.4310000   15.8160000   26.7520000  
H 19.1740000   13.4850000   24.5540000  
H 20.6450000   11.7250000   27.0680000  
C 17.1220000   14.5680000   24.8980000  
C 17.6780000   15.6670000   24.1770000  
C 17.0340000   16.2260000   23.0900000  
C 15.8770000   15.6650000   22.5070000  
C 15.4060000   14.4520000   23.0570000  
C 15.9940000   13.9490000   24.2710000  
C 18.8210000   16.5600000   24.3790000  
C 18.7090000   17.6660000   23.5210000  
N 17.4910000   17.5120000   22.7430000  
O 20.7630000   18.7210000   24.1250000  
C 19.6370000   18.8100000   23.4050000  
O 19.4500000   19.7310000   22.6400000  
O 14.3930000   13.7420000   22.5010000  
O 15.4460000   12.8210000   24.9140000  
H 19.6660000   16.4100000   25.0040000  
H 20.7290000   17.9630000   24.7590000  
H 17.1410000   18.0190000   21.9090000  
H 14.1010000   14.2890000   21.7650000  
H 14.5020000   12.6990000   24.6440000  
C 15.3000000   16.4680000   21.3940000  
C 16.0370000   16.6560000   20.1690000  
C 15.3480000   17.3900000   19.1970000  
C 14.1840000   18.1200000   19.4040000  
C 13.4190000   17.7330000   20.5460000  
C 14.0160000   17.0050000   21.5380000  
C 17.3750000   16.3270000   19.6740000  
C 17.4600000   16.8420000   18.4170000  
N 16.3030000   17.5910000   18.1730000  
O 19.6080000   15.9620000   17.9440000  
C 18.5340000   16.6260000   17.3870000  
O 18.5180000   17.0540000   16.2430000  
O 12.1430000   18.2160000   20.7510000  
O 13.3010000   16.8030000   22.6630000  
H 18.0220000   15.6230000   20.1980000  
H 19.3120000   15.4460000   18.7230000  
H 16.2000000   18.2470000   17.4070000  
H 11.8890000   18.8230000   20.0740000  
H 12.6050000   17.4220000   22.7420000  
C 13.7120000   19.2210000   18.3980000  
C 13.4480000   18.8670000   17.0670000  
C 13.1540000   19.8640000   16.1380000  
C 13.0610000   21.2480000   16.4640000  
C 13.1190000   21.5170000   17.8080000  
C 13.4580000   20.5560000   18.7610000  
C 13.5530000   17.6290000   16.3170000  
C 13.4740000   17.9720000   14.9670000  
N 13.2170000   19.3350000   14.8490000  
O 13.8970000   15.7480000   14.2830000  
C 13.6110000   17.0090000   13.8470000  
O 13.3910000   17.2430000   12.6860000  
O 12.8790000   22.7670000   18.2420000  
O 13.5250000   20.9360000   20.0700000  
H 13.8130000   16.6180000   16.6900000  
H 14.0190000   15.8390000   15.2270000  
H 13.1950000   19.9280000   13.9740000  
H 13.6900000   23.2290000   18.2010000  
H 13.4390000   20.1650000   20.6090000  
H 12.9270000   21.9790000   15.7430000  
