78
000 
C 14.7880000   16.6370000   14.2740000  
C 14.2040000   15.4280000   13.9430000  
C 13.7550000   14.7040000   15.0200000  
C 13.9060000   15.1560000   16.3160000  
C 14.4270000   16.4430000   16.7110000  
C 14.8110000   17.1780000   15.6170000  
C 13.1140000   13.4240000   15.1090000  
C 12.9080000   13.1310000   16.4910000  
N 13.4680000   14.2420000   17.2680000  
O 12.0010000   10.9650000   16.1120000  
C 12.3670000   11.8960000   17.0360000  
O 12.3950000   11.7030000   18.2080000  
O 15.3760000   18.3560000   15.9330000  
O 15.1850000   17.3840000   13.2490000  
H 14.0450000   15.0990000   12.9660000  
H 13.0500000   12.6230000   14.3900000  
H 12.1800000   11.2810000   15.2750000  
H 13.4820000   14.4430000   18.2820000  
H 15.0850000   18.4570000   16.8380000  
H 15.2740000   18.3180000   13.5520000  
C 14.5510000   16.8260000   18.1940000  
C 15.2970000   16.0230000   19.0290000  
C 15.6220000   16.4340000   20.3150000  
C 15.1960000   17.5710000   20.9600000  
C 14.4550000   18.4350000   20.0890000  
C 14.1050000   18.0520000   18.7870000  
C 15.9610000   14.7800000   18.8730000  
C 16.5620000   14.4930000   20.0940000  
N 16.2430000   15.4360000   21.0040000  
O 17.6220000   12.4570000   19.4700000  
C 17.3340000   13.3060000   20.4770000  
O 17.6110000   13.1310000   21.6340000  
O 13.8340000   19.5300000   20.6730000  
O 13.3460000   18.9400000   18.0280000  
H 16.0730000   14.2070000   17.9330000  
H 17.1870000   12.8850000   18.7730000  
H 16.4890000   15.3670000   22.0340000  
H 13.9320000   19.3750000   21.6650000  
H 12.9950000   19.6050000   18.6360000  
C 15.4700000   17.8310000   22.4470000  
C 16.8430000   17.8860000   22.9920000  
C 17.0300000   17.7800000   24.3830000  
C 16.0070000   17.8140000   25.3400000  
C 14.6830000   17.8650000   24.8080000  
C 14.4590000   17.8210000   23.4370000  
C 18.1630000   17.6310000   22.4190000  
C 18.9860000   17.2430000   23.4860000  
N 18.3200000   17.3850000   24.6790000  
O 20.7610000   16.8300000   22.0750000  
C 20.4060000   16.8920000   23.3770000  
O 21.1480000   16.7230000   24.3440000  
O 13.6480000   17.9290000   25.6390000  
O 13.1300000   17.8380000   23.0260000  
H 18.4610000   17.6830000   21.3380000  
H 19.9340000   16.9550000   21.6070000  
H 18.6820000   17.0480000   25.5980000  
H 13.9800000   17.9070000   26.5600000  
H 12.6460000   17.7950000   23.8690000  
C 16.2540000   17.6560000   26.7450000  
C 16.9760000   18.6250000   27.4980000  
C 17.2720000   18.4860000   28.8740000  
C 16.8750000   17.2810000   29.5060000  
C 16.0710000   16.3510000   28.8450000  
C 15.8190000   16.5110000   27.4790000  
C 17.6390000   19.8720000   27.0850000  
C 18.3420000   20.3740000   28.2210000  
N 18.0960000   19.5110000   29.2770000  
O 19.3770000   22.1940000   27.0140000  
C 19.2250000   21.5770000   28.2850000  
O 19.6250000   21.9870000   29.3020000  
O 15.7420000   15.1790000   29.4920000  
O 15.2750000   15.5520000   26.7550000  
H 17.8860000   20.2980000   26.1570000  
H 19.0160000   21.4750000   26.4420000  
H 18.4950000   19.5800000   30.2610000  
H 15.3280000   14.6500000   28.7940000  
H 15.1040000   15.8130000   25.8250000  
H 17.1210000   17.1740000   30.5400000  
