78
000 
C 22.5730000   13.9170000   23.8830000  
C 22.4900000   12.5000000   24.0780000  
C 21.1750000   11.9340000   23.9530000  
C 20.0640000   12.6940000   23.7690000  
C 20.1590000   14.1150000   23.5420000  
C 21.4110000   14.7050000   23.6140000  
C 20.6380000   10.5360000   24.0370000  
C 19.2450000   10.6160000   23.8740000  
N 18.8860000   11.9740000   23.5350000  
O 18.8490000    8.2130000   24.1760000  
C 18.2940000    9.4620000   23.9290000  
O 17.1340000    9.5650000   23.5420000  
O 21.5600000   16.0910000   23.5680000  
O 23.7650000   14.5560000   23.8520000  
H 23.3190000   11.8450000   24.1400000  
H 21.1800000    9.6960000   24.2660000  
H 19.7190000    8.5170000   24.4950000  
H 17.9270000   12.3740000   23.3980000  
H 20.7200000   16.5080000   23.3640000  
H 23.6060000   15.5570000   23.7380000  
C 18.9650000   14.9370000   23.1280000  
C 18.4800000   16.0060000   23.8950000  
C 17.3640000   16.6970000   23.4910000  
C 16.6810000   16.4770000   22.2320000  
C 17.3540000   15.6420000   21.3200000  
C 18.4650000   14.8200000   21.7510000  
C 18.8740000   16.5960000   25.1240000  
C 18.0380000   17.6680000   25.3390000  
N 17.0770000   17.7450000   24.3240000  
O 18.9620000   18.1880000   27.4400000  
C 18.0170000   18.4880000   26.5420000  
O 17.1130000   19.2850000   26.8590000  
O 16.8340000   15.5520000   20.0760000  
O 18.9870000   14.0170000   20.8290000  
H 19.6780000   16.3870000   25.7250000  
H 19.6460000   17.6520000   27.0020000  
H 16.3430000   18.4480000   24.2290000  
H 16.2280000   16.3010000   19.8410000  
H 19.8330000   13.5990000   21.1740000  
C 15.4700000   17.2980000   21.8390000  
C 15.5810000   18.2680000   20.8320000  
C 14.5390000   19.0210000   20.4890000  
C 13.2120000   18.9040000   21.0420000  
C 13.1230000   18.0140000   22.1710000  
C 14.2570000   17.3060000   22.6440000  
C 16.5990000   18.6600000   20.0000000  
C 16.1790000   19.7020000   19.2170000  
N 14.8860000   19.9330000   19.4910000  
O 18.0690000   19.7480000   17.8360000  
C 16.8760000   20.3330000   18.0910000  
O 16.3680000   21.0840000   17.3020000  
O 11.9910000   18.0150000   22.8640000  
O 14.1320000   16.3790000   23.6950000  
H 17.5780000   18.2300000   20.0130000  
H 18.0500000   19.0620000   18.5280000  
H 14.3280000   20.5850000   19.0200000  
H 11.3210000   18.4270000   22.3430000  
H 13.1470000   16.4480000   23.8050000  
C 12.0760000   19.7310000   20.5350000  
C 11.0640000   19.1450000   19.7170000  
C 10.0720000   19.9250000   19.2150000  
C 10.0320000   21.2880000   19.4640000  
C 10.9920000   21.9520000   20.2050000  
C 12.0230000   21.1660000   20.7690000  
C 10.6830000   17.7690000   19.4220000  
C  9.4100000   17.7840000   18.7240000  
N  9.0910000   19.2080000   18.5840000  
O  8.8960000   15.4680000   18.6810000  
C  8.5180000   16.7440000   18.2960000  
O  7.5650000   16.9290000   17.6290000  
O 10.8670000   23.2510000   20.4420000  
O 12.9380000   21.7960000   21.5390000  
H 11.2180000   16.8590000   19.8280000  
H  9.7410000   15.5090000   19.1170000  
H  8.3000000   19.5870000   18.0980000  
H 11.5940000   23.4700000   21.0570000  
H 13.6470000   21.1970000   21.8080000  
H  9.2500000   21.8510000   19.0590000  
