78
000 
C 11.9500000   15.6190000   27.8690000  
C 10.6040000   16.0790000   27.7580000  
C 10.2090000   16.6180000   26.5410000  
C 11.0630000   16.8080000   25.4990000  
C 12.4330000   16.4110000   25.5920000  
C 12.8440000   15.8460000   26.8230000  
C  8.8610000   16.9530000   26.0400000  
C  9.0240000   17.6320000   24.8080000  
N 10.4080000   17.4330000   24.4550000  
O  6.7700000   18.2920000   24.4960000  
C  8.0460000   18.4040000   24.0070000  
O  8.2790000   19.1080000   23.0620000  
O 14.1900000   15.5500000   27.0800000  
O 12.3890000   14.9350000   29.0230000  
H  9.9340000   15.9760000   28.6610000  
H  7.8750000   16.8800000   26.6430000  
H  6.8570000   17.6830000   25.2730000  
H 10.8920000   17.7740000   23.6220000  
H 14.6340000   16.0690000   26.4140000  
H 13.3010000   14.6150000   28.7640000  
C 13.4780000   16.5760000   24.5170000  
C 14.5690000   17.4260000   24.6750000  
C 15.5570000   17.5090000   23.7780000  
C 15.5530000   16.9410000   22.5350000  
C 14.4840000   15.9630000   22.3520000  
C 13.4950000   15.7760000   23.2960000  
C 14.9690000   18.4380000   25.6510000  
C 16.2150000   18.9200000   25.3350000  
N 16.6450000   18.2690000   24.1350000  
O 16.2650000   20.5240000   27.0790000  
C 16.9400000   19.9720000   26.0440000  
O 18.1430000   20.1500000   25.9310000  
O 14.3850000   15.1610000   21.1990000  
O 12.4070000   14.9650000   22.9660000  
H 14.4010000   18.6910000   26.5130000  
H 15.3330000   20.2700000   26.9620000  
H 17.4720000   18.4930000   23.6810000  
H 15.1380000   15.3460000   20.5500000  
H 12.3060000   14.8700000   22.0100000  
C 16.7120000   17.0390000   21.6060000  
C 17.5350000   15.8830000   21.4570000  
C 18.4650000   15.8640000   20.4740000  
C 18.7590000   16.9730000   19.6190000  
C 18.0100000   18.1730000   19.8010000  
C 16.9530000   18.1860000   20.7570000  
C 17.6190000   14.5060000   22.0890000  
C 18.5600000   13.8040000   21.3360000  
N 19.1040000   14.6390000   20.4030000  
O 18.5010000   11.8250000   22.6250000  
C 19.1670000   12.4960000   21.7000000  
O 20.1680000   12.0090000   21.1850000  
O 18.3040000   19.2930000   19.0220000  
O 16.1400000   19.2430000   20.8770000  
H 17.0530000   14.1610000   22.9710000  
H 17.7380000   12.3560000   22.8610000  
H 19.9250000   14.3510000   19.8910000  
H 18.9040000   19.0300000   18.3700000  
H 16.1320000   19.8120000   20.1170000  
C 19.7940000   16.9660000   18.5230000  
C 19.5310000   17.0810000   17.1630000  
C 20.4530000   16.8310000   16.1980000  
C 21.7710000   16.5060000   16.4970000  
C 22.1360000   16.3800000   17.8290000  
C 21.1710000   16.5380000   18.8200000  
C 18.2340000   17.3150000   16.5030000  
C 18.5440000   17.1930000   15.1340000  
N 19.8900000   16.8050000   14.9720000  
O 16.2750000   17.5460000   14.4640000  
C 17.5520000   17.2200000   14.0530000  
O 17.7590000   17.0710000   12.8620000  
O 23.4550000   16.0820000   18.1240000  
O 21.5470000   16.4580000   20.1020000  
H 17.2500000   17.3520000   16.9840000  
H 16.3160000   17.5400000   15.4220000  
H 20.3890000   16.7200000   14.0910000  
H 23.3870000   15.6670000   19.0300000  
H 20.8160000   16.7980000   20.7030000  
H 22.5260000   16.2970000   15.7260000  
