78
000 
C 21.9260000   14.2810000   18.1030000  
C 21.4750000   13.5960000   16.9240000  
C 20.0880000   13.3920000   16.8380000  
C 19.1950000   13.8440000   17.7660000  
C 19.6000000   14.5850000   18.9130000  
C 20.9980000   14.8600000   19.0350000  
C 19.3320000   12.9760000   15.6740000  
C 18.0040000   13.1570000   16.0430000  
N 17.9180000   13.7540000   17.3120000  
O 17.0910000   12.2560000   14.1990000  
C 16.8230000   12.8620000   15.2960000  
O 15.7450000   13.1550000   15.7440000  
O 21.5210000   15.5290000   20.1560000  
O 23.2900000   14.5280000   18.3190000  
H 22.1480000   13.3440000   16.1490000  
H 19.7300000   12.4590000   14.7610000  
H 18.0730000   12.1380000   14.1570000  
H 17.1010000   14.0860000   17.8050000  
H 20.7370000   15.8640000   20.5270000  
H 23.3770000   14.9770000   19.1900000  
C 18.5620000   15.2800000   19.7760000  
C 17.6760000   14.5640000   20.5020000  
C 16.6790000   15.1860000   21.1410000  
C 16.4330000   16.5710000   21.2590000  
C 17.3920000   17.3410000   20.4900000  
C 18.4910000   16.6990000   19.8770000  
C 17.5060000   13.1400000   20.7600000  
C 16.2550000   13.0490000   21.4570000  
N 15.8130000   14.3010000   21.7460000  
O 16.3470000   10.6550000   21.8440000  
C 15.7130000   11.8200000   22.0980000  
O 14.6570000   11.8300000   22.7230000  
O 17.2510000   18.7290000   20.4140000  
O 19.3410000   17.4530000   19.1290000  
H 18.1280000   12.2700000   20.5790000  
H 17.0560000   10.9420000   21.3030000  
H 14.9320000   14.5240000   22.1420000  
H 16.5180000   19.1090000   20.9230000  
H 18.9510000   18.2200000   18.7370000  
C 15.3160000   17.2270000   22.0190000  
C 15.2970000   17.1460000   23.4060000  
C 14.3270000   17.8460000   24.1170000  
C 13.4520000   18.6990000   23.5630000  
C 13.4650000   18.8290000   22.1770000  
C 14.3470000   18.1070000   21.3990000  
C 16.0610000   16.4320000   24.3190000  
C 15.6070000   16.7340000   25.5920000  
N 14.4900000   17.6470000   25.4800000  
O 17.4080000   15.6900000   26.6220000  
C 16.1890000   16.2050000   26.8470000  
O 15.4880000   16.0760000   27.8850000  
O 12.4910000   19.5760000   21.6290000  
O 14.2990000   18.2070000   20.0740000  
H 16.7910000   15.6750000   23.9630000  
H 17.7190000   16.0320000   25.8070000  
H 13.8870000   18.0340000   26.2130000  
H 12.3480000   20.4110000   22.1380000  
H 13.5510000   18.7930000   19.9590000  
C 12.4070000   19.4020000   24.3640000  
C 12.6620000   20.6250000   24.9670000  
C 11.7530000   21.2530000   25.8200000  
C 10.4640000   20.7230000   26.1040000  
C 10.1810000   19.4930000   25.4730000  
C 11.1030000   18.8450000   24.6920000  
C 13.9390000   21.2980000   25.0390000  
C 13.7810000   22.3150000   26.0020000  
N 12.4520000   22.2880000   26.4730000  
O 15.6760000   23.3570000   25.3440000  
C 14.6920000   23.4650000   26.1900000  
O 14.6040000   24.3690000   26.9690000  
O  8.9710000   18.9420000   25.7970000  
O 10.7520000   17.6520000   24.1210000  
H 14.8000000   21.1550000   24.3570000  
H 15.5270000   22.6000000   24.7780000  
H 11.9840000   22.8980000   27.2040000  
H  8.8730000   18.0090000   25.5530000  
H 11.4210000   17.3220000   23.5230000  
H  9.6740000   21.2950000   26.5220000  
