78
000 
C 12.0190000   14.6870000   28.2770000  
C 11.1480000   15.7990000   28.4730000  
C 11.1550000   16.7790000   27.4880000  
C 11.9750000   16.6610000   26.4170000  
C 12.7820000   15.5290000   26.0350000  
C 12.8030000   14.5470000   27.0680000  
C 10.6980000   18.1540000   27.5170000  
C 11.2730000   18.7700000   26.4100000  
N 12.0110000   17.8320000   25.6760000  
O 10.6520000   20.9840000   27.0460000  
C 11.3640000   20.2170000   26.1780000  
O 11.9700000   20.5920000   25.1770000  
O 13.6500000   13.5280000   26.9560000  
O 12.0850000   13.7850000   29.2660000  
H 10.5540000   15.8980000   29.3600000  
H 10.1390000   18.6710000   28.4020000  
H 10.4310000   20.4100000   27.7590000  
H 12.5900000   18.0230000   24.8490000  
H 14.1870000   13.7630000   26.1210000  
H 12.2180000   12.8600000   28.8500000  
C 13.6400000   15.6350000   24.7550000  
C 14.6560000   16.5970000   24.7750000  
C 15.3700000   16.9580000   23.6720000  
C 15.1280000   16.3980000   22.4120000  
C 14.1070000   15.3700000   22.4120000  
C 13.3800000   15.0160000   23.5190000  
C 15.2330000   17.4700000   25.8450000  
C 16.1510000   18.3070000   25.1930000  
N 16.1630000   18.0500000   23.8540000  
O 16.7060000   19.4040000   27.1980000  
C 16.9800000   19.3150000   25.8670000  
O 17.8240000   19.9890000   25.3220000  
O 13.7390000   14.8700000   21.2070000  
O 12.4150000   14.0240000   23.3360000  
H 14.9460000   17.4050000   26.8870000  
H 15.9690000   18.7880000   27.2850000  
H 16.7920000   18.4540000   23.1480000  
H 13.9020000   15.4640000   20.5260000  
H 12.2670000   13.9270000   22.4140000  
C 16.0180000   16.6870000   21.2350000  
C 16.9610000   15.6900000   20.8760000  
C 17.9420000   15.9260000   19.8750000  
C 18.0910000   17.1440000   19.1990000  
C 17.1250000   18.0670000   19.5230000  
C 16.1320000   17.9140000   20.5480000  
C 17.3120000   14.3450000   21.3490000  
C 18.2600000   13.8410000   20.4540000  
N 18.6950000   14.8570000   19.5290000  
O 18.3470000   11.6250000   21.2650000  
C 18.8420000   12.4950000   20.3680000  
O 19.7230000   12.2570000   19.5910000  
O 17.2590000   19.2400000   18.7980000  
O 15.3230000   18.9670000   20.9050000  
H 16.8780000   13.7920000   22.1790000  
H 17.6140000   12.1250000   21.5650000  
H 19.4560000   14.7440000   18.9260000  
H 17.9700000   19.1790000   18.0760000  
H 15.3050000   19.6170000   20.2220000  
C 19.0650000   17.4150000   18.1250000  
C 18.7620000   17.5150000   16.7470000  
C 19.7240000   17.7250000   15.7910000  
C 21.0660000   17.8490000   16.1270000  
C 21.3980000   17.7940000   17.5150000  
C 20.4430000   17.4810000   18.4890000  
C 17.5910000   17.1060000   16.0310000  
C 17.8970000   17.1470000   14.7440000  
N 19.2100000   17.4990000   14.5540000  
O 15.7830000   16.5230000   13.9650000  
C 17.0000000   16.9590000   13.6110000  
O 17.3670000   17.2210000   12.4630000  
O 22.6560000   18.0620000   17.8710000  
O 20.8140000   17.3080000   19.7990000  
H 16.6210000   16.9730000   16.3820000  
H 15.7830000   16.4860000   14.9370000  
H 19.6830000   17.6840000   13.6990000  
H 22.7570000   18.0990000   18.8580000  
H 20.0410000   16.9300000   20.3120000  
H 21.9220000   17.8480000   15.4020000  
