78
000 
C 22.3310000   12.8440000   22.3420000  
C 22.8100000   13.0140000   21.0430000  
C 21.9720000   13.6900000   20.1750000  
C 20.7680000   14.1870000   20.5660000  
C 20.1610000   14.0000000   21.8260000  
C 21.0460000   13.3260000   22.7450000  
C 22.1330000   14.0880000   18.8410000  
C 20.9840000   14.7750000   18.5000000  
N 20.1340000   14.8830000   19.5910000  
O 21.6560000   15.4900000   16.3340000  
C 20.6600000   15.3190000   17.1610000  
O 19.5880000   15.7570000   16.7930000  
O 20.7280000   13.1560000   24.0760000  
O 23.0740000   12.3040000   23.3700000  
H 23.7260000   12.6490000   20.6340000  
H 23.0230000   13.8790000   18.2000000  
H 22.3710000   15.3690000   16.9070000  
H 19.1950000   15.1820000   19.5730000  
H 19.8790000   13.5420000   24.1120000  
H 22.4850000   12.4620000   24.1240000  
C 18.8210000   14.5030000   22.0870000  
C 17.7130000   13.9790000   21.4240000  
C 16.4980000   14.5160000   21.4660000  
C 16.2740000   15.6740000   22.3200000  
C 17.3810000   16.2390000   23.0230000  
C 18.6150000   15.5990000   22.9410000  
C 17.5740000   12.7800000   20.6220000  
C 16.2620000   12.8160000   20.1310000  
N 15.5380000   13.7760000   20.8300000  
O 16.5490000   11.0190000   18.6170000  
C 15.6690000   11.8670000   19.1560000  
O 14.4920000   11.6770000   18.8820000  
O 17.3550000   17.3860000   23.7720000  
O 19.6520000   16.0090000   23.7390000  
H 18.3500000   12.0810000   20.4200000  
H 17.3980000   11.4720000   18.9260000  
H 14.5470000   13.9540000   20.7710000  
H 16.5800000   17.9630000   23.5280000  
H 19.4280000   16.9070000   24.0890000  
C 14.9290000   16.3380000   22.2890000  
C 14.3480000   16.7540000   23.5230000  
C 13.4930000   17.8270000   23.5430000  
C 12.9930000   18.5210000   22.3960000  
C 13.3920000   17.9220000   21.1700000  
C 14.3310000   16.8550000   21.0990000  
C 14.6070000   16.5480000   24.9600000  
C 13.7890000   17.4020000   25.7410000  
N 13.0640000   18.1870000   24.8260000  
O 14.6030000   16.8790000   27.8850000  
C 13.7370000   17.5830000   27.1590000  
O 12.8780000   18.2680000   27.6500000  
O 12.8220000   18.3340000   20.0180000  
O 14.7840000   16.4300000   19.8950000  
H 15.4100000   15.9000000   25.3700000  
H 15.2010000   16.5830000   27.1810000  
H 12.5210000   19.0140000   25.1200000  
H 12.6490000   19.3070000   20.1000000  
H 14.1430000   16.8770000   19.3020000  
C 11.8290000   19.4400000   22.4370000  
C 11.9840000   20.8270000   22.4920000  
C 10.9490000   21.7190000   22.4980000  
C  9.6120000   21.2470000   22.3000000  
C  9.3890000   19.8290000   22.2340000  
C 10.4610000   18.9180000   22.2610000  
C 13.2090000   21.5330000   22.3210000  
C 12.8780000   22.8650000   22.2930000  
N 11.4510000   22.9770000   22.2770000  
O 15.0780000   23.5490000   22.3280000  
C 13.7930000   24.0170000   22.1900000  
O 13.5500000   25.1860000   21.9710000  
O  8.1130000   19.3650000   22.1940000  
O 10.1810000   17.5620000   22.2510000  
H 14.2160000   21.2080000   22.3250000  
H 14.7850000   22.6560000   22.4230000  
H 10.9690000   23.8370000   22.1660000  
H  8.1670000   18.5160000   21.7530000  
H 11.0710000   17.1730000   22.2090000  
H  8.7870000   21.9510000   22.1690000  
