78
000 
C 12.7730000   17.0050000   29.0230000  
C 11.4560000   16.8580000   28.6530000  
C 11.1220000   16.5600000   27.3660000  
C 12.0270000   16.4370000   26.3850000  
C 13.4570000   16.5030000   26.6230000  
C 13.8220000   16.8090000   28.0120000  
C  9.8080000   16.4970000   26.7450000  
C 10.0880000   16.2740000   25.3960000  
N 11.5070000   16.0620000   25.2050000  
O  7.8110000   16.1290000   24.7840000  
C  9.1020000   16.0720000   24.2990000  
O  9.2790000   15.9470000   23.0760000  
O 15.1060000   17.0870000   28.2900000  
O 13.0660000   17.4280000   30.3020000  
H 10.6240000   16.8570000   29.3360000  
H  8.8520000   16.4780000   27.2700000  
H  8.0410000   16.1550000   25.7010000  
H 11.9890000   15.6630000   24.4610000  
H 15.5650000   16.4070000   27.8580000  
H 14.0310000   17.5230000   30.3600000  
C 14.3800000   16.3530000   25.4260000  
C 14.1870000   17.2120000   24.2860000  
C 14.9000000   17.1280000   23.1430000  
C 15.9350000   16.1760000   22.9710000  
C 16.2550000   15.3560000   24.0950000  
C 15.4400000   15.3910000   25.2870000  
C 13.3910000   18.4340000   24.1010000  
C 13.6040000   18.9100000   22.8090000  
N 14.6770000   18.1330000   22.2420000  
O 12.2400000   20.8270000   22.9340000  
C 12.8980000   19.9860000   22.0920000  
O 12.9610000   20.2370000   20.9150000  
O 17.2400000   14.4350000   24.0450000  
O 15.7330000   14.5020000   26.2500000  
H 12.6300000   18.8880000   24.7570000  
H 12.5120000   20.3850000   23.7320000  
H 15.0230000   18.1430000   21.2870000  
H 17.3970000   14.2890000   23.0660000  
H 16.3300000   13.8070000   25.8580000  
C 16.6500000   16.0930000   21.6800000  
C 17.3770000   17.1390000   21.1370000  
C 18.1230000   17.0130000   19.9820000  
C 17.9260000   16.0050000   19.1090000  
C 17.0600000   14.9480000   19.5300000  
C 16.4700000   14.9550000   20.8460000  
C 17.6350000   18.4670000   21.6580000  
C 18.4270000   19.0830000   20.7360000  
N 18.8240000   18.2340000   19.6970000  
O 18.3420000   21.1110000   21.9560000  
C 18.8430000   20.4410000   20.8960000  
O 19.5900000   21.0300000   20.1090000  
O 16.8840000   13.8300000   18.7320000  
O 15.6210000   13.9650000   21.2560000  
H 17.3200000   18.8040000   22.6700000  
H 17.5220000   20.6210000   22.1390000  
H 19.4200000   18.4150000   18.8680000  
H 17.2630000   13.9910000   17.8450000  
H 15.5120000   13.3290000   20.5200000  
C 18.3460000   16.1700000   17.7150000  
C 19.5860000   15.6890000   17.3690000  
C 20.0960000   15.8900000   16.1240000  
C 19.4570000   16.6730000   15.1740000  
C 18.2320000   17.2900000   15.5420000  
C 17.6630000   17.0320000   16.7870000  
C 20.6480000   15.0040000   18.1160000  
C 21.6500000   14.7640000   17.2180000  
N 21.3230000   15.3540000   16.0090000  
O 23.0470000   13.5090000   18.7860000  
C 22.7820000   13.8690000   17.5010000  
O 23.5910000   13.6440000   16.5860000  
O 17.4820000   18.0120000   14.6720000  
O 16.5320000   17.7290000   17.2570000  
H 20.5060000   14.5440000   19.0600000  
H 22.4750000   14.0090000   19.4000000  
H 21.8100000   15.3150000   15.1100000  
H 16.5490000   17.8420000   14.8940000  
H 16.3000000   18.5670000   16.7020000  
H 19.9210000   16.7270000   14.2200000  
