78
000 
C 17.9680000   17.1810000   29.0740000  
C 17.8580000   15.8840000   29.5580000  
C 17.2870000   14.8880000   28.8080000  
C 16.7110000   15.1410000   27.5970000  
C 16.9180000   16.3870000   26.9650000  
C 17.4880000   17.4620000   27.7320000  
C 17.2620000   13.4760000   28.9780000  
C 16.8090000   12.9700000   27.7720000  
N 16.5210000   13.9950000   26.8630000  
O 16.6530000   10.7000000   28.5590000  
C 16.6620000   11.5110000   27.4990000  
O 16.3770000   11.1470000   26.3820000  
O 17.5260000   18.6820000   27.1950000  
O 18.6550000   18.1380000   29.8150000  
H 18.4510000   15.6500000   30.4160000  
H 17.5750000   12.8320000   29.8910000  
H 16.6430000   11.2320000   29.3440000  
H 16.4340000   13.8670000   25.8360000  
H 17.2580000   18.5750000   26.2760000  
H 18.8740000   18.9090000   29.3250000  
C 16.5350000   16.5200000   25.5090000  
C 15.1850000   16.4960000   25.0380000  
C 14.8790000   16.7550000   23.7410000  
C 15.8490000   16.9900000   22.7090000  
C 17.2200000   16.8790000   23.1560000  
C 17.5100000   16.7740000   24.5170000  
C 13.9590000   16.1380000   25.7240000  
C 12.9090000   16.1740000   24.7630000  
N 13.5330000   16.4670000   23.5510000  
O 11.0610000   15.3350000   26.1410000  
C 11.4650000   15.8320000   24.9190000  
O 10.6260000   15.9980000   24.0200000  
O 18.2570000   17.0630000   22.2840000  
O 18.8280000   16.6580000   24.9670000  
H 13.8740000   15.7150000   26.6950000  
H 11.8390000   15.3780000   26.7090000  
H 13.0990000   16.3280000   22.6660000  
H 17.9370000   17.1030000   21.3430000  
H 19.0040000   16.4190000   25.9130000  
C 15.4690000   17.2300000   21.2580000  
C 15.8620000   18.4140000   20.6670000  
C 15.7240000   18.5430000   19.3010000  
C 15.0170000   17.6720000   18.3940000  
C 14.6090000   16.4820000   19.0130000  
C 14.8140000   16.2950000   20.4580000  
C 16.6810000   19.5080000   21.1300000  
C 16.9080000   20.3100000   20.0410000  
N 16.3310000   19.7220000   18.8960000  
O 18.0760000   22.1020000   21.1180000  
C 17.4830000   21.6550000   19.9520000  
O 17.4200000   22.2950000   18.9120000  
O 14.1000000   15.4720000   18.2310000  
O 14.3910000   15.0900000   20.9360000  
H 16.9890000   19.7060000   22.1220000  
H 18.1220000   21.3090000   21.7190000  
H 16.1090000   20.2210000   18.0530000  
H 14.0890000   15.8970000   17.3820000  
H 13.7710000   14.6760000   20.2460000  
C 14.8480000   17.9220000   16.9150000  
C 15.5680000   17.0680000   15.9800000  
C 15.4110000   17.1680000   14.6600000  
C 14.5210000   18.0690000   14.0640000  
C 13.7400000   18.8660000   14.9660000  
C 13.8960000   18.8490000   16.3990000  
C 16.6880000   16.1620000   16.2410000  
C 17.2380000   15.7990000   15.0060000  
N 16.3750000   16.3210000   14.0540000  
O 19.0650000   14.6260000   15.9840000  
C 18.5330000   15.0710000   14.8400000  
O 19.1150000   14.9920000   13.8330000  
O 12.7840000   19.5940000   14.3850000  
O 13.0110000   19.4650000   17.2560000  
H 17.1680000   16.1820000   17.2500000  
H 18.4580000   14.7770000   16.7180000  
H 16.4990000   16.2010000   13.0270000  
H 12.5440000   20.3740000   14.8820000  
H 13.2220000   19.4330000   18.1980000  
H 14.4560000   18.1550000   12.9360000  
