78
000 
C 19.0780000   14.0970000   15.6680000  
C 20.3880000   13.6010000   16.0650000  
C 20.4610000   13.0990000   17.3980000  
C 19.4290000   13.4070000   18.2650000  
C 18.2860000   14.1830000   18.0520000  
C 18.0660000   14.5050000   16.6300000  
C 21.5680000   12.5570000   18.0770000  
C 21.0560000   12.2870000   19.3810000  
N 19.7700000   12.8390000   19.4950000  
O 23.0240000   11.2100000   20.1320000  
C 21.7500000   11.5140000   20.4210000  
O 21.2690000   11.3270000   21.5200000  
O 16.8790000   15.1120000   16.2490000  
O 18.6860000   14.2400000   14.3800000  
H 21.2090000   13.3740000   15.3750000  
H 22.5890000   12.3480000   17.6210000  
H 23.1490000   11.6280000   19.2990000  
H 19.2530000   12.9300000   20.3340000  
H 16.3340000   15.3030000   17.0300000  
H 17.8280000   14.6950000   14.3140000  
C 17.5050000   14.6240000   19.2450000  
C 18.1380000   15.2740000   20.3400000  
C 17.3920000   15.9150000   21.3210000  
C 15.9670000   15.8680000   21.4550000  
C 15.3650000   15.1210000   20.3930000  
C 16.0710000   14.5530000   19.3140000  
C 19.5360000   15.5650000   20.6890000  
C 19.5430000   16.3770000   21.8220000  
N 18.2230000   16.5500000   22.2380000  
O 21.8850000   16.7050000   21.7530000  
C 20.7220000   16.9400000   22.4340000  
O 20.6880000   17.5240000   23.5210000  
O 14.0550000   15.0880000   20.2280000  
O 15.4720000   13.8550000   18.3430000  
H 20.4270000   15.3440000   20.0920000  
H 21.7170000   15.9430000   21.1550000  
H 17.8730000   16.8910000   23.1180000  
H 13.5660000   15.6190000   20.8790000  
H 14.6050000   13.7450000   18.6700000  
C 15.2170000   16.5640000   22.5590000  
C 15.1540000   17.9350000   22.6560000  
C 14.2890000   18.5180000   23.5150000  
C 13.5150000   17.8940000   24.4370000  
C 13.6020000   16.4690000   24.4040000  
C 14.4020000   15.7740000   23.4520000  
C 15.8580000   19.0020000   21.9900000  
C 15.4600000   20.1310000   22.6100000  
N 14.4250000   19.8860000   23.5250000  
O 16.8720000   21.4990000   21.2140000  
C 15.9140000   21.4950000   22.1730000  
O 15.4490000   22.4960000   22.6520000  
O 12.8420000   15.6740000   25.2990000  
O 14.5630000   14.4430000   23.5190000  
H 16.4680000   18.9210000   21.1200000  
H 17.2200000   20.6390000   21.1780000  
H 13.8300000   20.5810000   23.9730000  
H 12.1890000   16.2620000   25.6810000  
H 14.1060000   13.9280000   24.2050000  
C 12.7950000   18.6390000   25.5150000  
C 11.6290000   19.3420000   25.1300000  
C 10.8690000   19.9490000   26.0550000  
C 11.1440000   19.9490000   27.3770000  
C 12.2820000   19.3360000   27.8920000  
C 13.1130000   18.6340000   26.9840000  
C 10.9860000   19.5590000   23.8090000  
C  9.8110000   20.2410000   24.0980000  
N  9.7160000   20.5130000   25.4520000  
O  9.1020000   20.3710000   21.8480000  
C  8.7660000   20.7090000   23.1090000  
O  7.7150000   21.3150000   23.3510000  
O 12.5060000   19.4350000   29.2290000  
O 14.3100000   18.0530000   27.3360000  
H 11.3240000   19.2750000   22.8460000  
H  9.9260000   19.8300000   21.9170000  
H  9.0080000   21.0620000   25.9320000  
H 13.4940000   19.2990000   29.2980000  
H 14.8190000   17.8450000   26.4980000  
H 10.5360000   20.6410000   28.0260000  
