78
000 
C 20.8830000   14.9330000   27.1400000  
C 20.9080000   13.5310000   27.4110000  
C 20.1120000   12.7590000   26.6290000  
C 19.3200000   13.3340000   25.6580000  
C 19.3460000   14.7100000   25.2700000  
C 20.1670000   15.5390000   26.0590000  
C 19.8390000   11.3750000   26.6690000  
C 18.7500000   11.1870000   25.7550000  
N 18.5280000   12.3610000   25.0610000  
O 18.6960000    8.8250000   26.1860000  
C 18.0750000    9.8320000   25.5610000  
O 17.1840000    9.6030000   24.7880000  
O 20.1330000   16.9040000   25.8730000  
O 21.6040000   15.8210000   27.9940000  
H 21.4430000   13.0220000   28.2550000  
H 20.2550000   10.5950000   27.2940000  
H 19.2680000    9.4020000   26.7860000  
H 17.8490000   12.4890000   24.3400000  
H 19.6430000   17.0760000   25.0320000  
H 21.3450000   16.6780000   27.5260000  
C 18.3940000   15.3080000   24.2600000  
C 17.5080000   16.2840000   24.5890000  
C 16.7230000   16.8930000   23.6780000  
C 16.6890000   16.5570000   22.3040000  
C 17.6540000   15.6470000   21.8940000  
C 18.5200000   15.0600000   22.8770000  
C 17.1860000   16.7040000   25.8690000  
C 16.1730000   17.6280000   25.6480000  
N 16.0410000   17.8970000   24.2750000  
O 15.3780000   17.8430000   27.9100000  
C 15.3500000   18.3310000   26.6480000  
O 14.6350000   19.2430000   26.2980000  
O 17.6150000   15.2740000   20.5680000  
O 19.4440000   14.1710000   22.4530000  
H 17.4150000   16.1910000   26.8250000  
H 16.0480000   17.1410000   27.9920000  
H 15.2430000   18.3780000   23.8130000  
H 17.0600000   15.9490000   20.1770000  
H 19.6800000   13.6730000   23.2390000  
C 15.6990000   17.1350000   21.3430000  
C 15.9900000   18.3450000   20.6560000  
C 15.0400000   18.9260000   19.8510000  
C 13.6890000   18.4580000   19.6860000  
C 13.3450000   17.2480000   20.4100000  
C 14.3220000   16.6210000   21.2290000  
C 17.1360000   19.1560000   20.6120000  
C 16.8850000   20.1290000   19.6120000  
N 15.5900000   19.9430000   19.1200000  
O 19.0320000   21.1380000   19.5260000  
C 17.8070000   21.0840000   18.9500000  
O 17.4890000   21.7360000   17.9650000  
O 12.0600000   16.7950000   20.4960000  
O 13.9870000   15.4070000   21.8290000  
H 18.1480000   18.9770000   20.9990000  
H 18.8710000   20.9240000   20.4460000  
H 15.2070000   20.4040000   18.2860000  
H 11.4690000   17.5530000   20.2020000  
H 13.0330000   15.2120000   21.7890000  
C 12.6460000   19.2040000   18.8000000  
C 12.2460000   18.5820000   17.6320000  
C 11.3150000   19.2020000   16.8610000  
C 10.6960000   20.4040000   17.1550000  
C 11.0840000   21.0860000   18.2760000  
C 12.1060000   20.5310000   19.0330000  
C 12.5470000   17.3210000   17.1150000  
C 11.8100000   17.2250000   15.9310000  
N 11.1390000   18.4290000   15.7580000  
O 12.5770000   14.9970000   15.4200000  
C 11.8150000   16.0850000   15.0390000  
O 11.1530000   16.0190000   14.0340000  
O 10.4640000   22.3040000   18.5800000  
O 12.5550000   21.1120000   20.1920000  
H 13.0530000   16.4830000   17.5800000  
H 12.6900000   15.1180000   16.3800000  
H 10.5810000   18.7100000   14.9550000  
H 11.0330000   22.8000000   19.1930000  
H 13.0240000   20.4270000   20.7210000  
H  9.9660000   20.8580000   16.4970000  
