78
000 
C 19.7810000   10.5130000   20.6150000  
C 20.6450000   10.6780000   19.5210000  
C 20.7110000   11.9290000   18.9450000  
C 19.9990000   13.0280000   19.3780000  
C 19.1000000   12.9100000   20.4450000  
C 19.0240000   11.6240000   21.0930000  
C 21.5420000   12.5120000   17.8930000  
C 21.3140000   13.8660000   17.7850000  
N 20.3560000   14.2060000   18.7880000  
O 22.4130000   14.1830000   15.6020000  
C 21.8910000   14.7350000   16.7150000  
O 21.7500000   15.9480000   16.7690000  
O 17.9650000   11.3990000   21.9650000  
O 19.5770000    9.2710000   21.1870000  
H 21.3340000    9.9630000   19.0680000  
H 22.2700000   11.9700000   17.2700000  
H 22.1890000   13.2340000   15.5650000  
H 19.8870000   15.0930000   18.8200000  
H 17.7220000   12.2370000   22.3890000  
H 18.8390000    9.3350000   21.8560000  
C 18.3490000   14.1270000   21.0720000  
C 17.4050000   14.7600000   20.2120000  
C 16.7350000   15.8250000   20.6540000  
C 16.7400000   16.3140000   21.9600000  
C 17.6350000   15.6820000   22.7960000  
C 18.4790000   14.6450000   22.3700000  
C 17.0660000   14.6050000   18.8160000  
C 16.2020000   15.6820000   18.4730000  
N 16.0240000   16.4340000   19.6610000  
O 16.1430000   15.0220000   16.1830000  
C 15.6940000   15.9510000   17.0930000  
O 15.0630000   16.9220000   16.7610000  
O 17.8960000   16.0830000   24.0750000  
O 19.3490000   14.0650000   23.2490000  
H 17.2680000   13.6810000   18.1900000  
H 16.8720000   14.5180000   16.5640000  
H 15.4500000   17.2080000   19.8890000  
H 17.6500000   16.9620000   24.1260000  
H 19.1790000   14.4710000   24.0840000  
C 16.0070000   17.5370000   22.4290000  
C 14.5940000   17.5180000   22.4440000  
C 13.9060000   18.5850000   22.9520000  
C 14.4260000   19.7380000   23.5210000  
C 15.8040000   19.6710000   23.6810000  
C 16.6020000   18.7800000   22.9500000  
C 13.6030000   16.6550000   21.9030000  
C 12.3750000   17.3320000   22.0490000  
N 12.6080000   18.4490000   22.8310000  
O 11.0860000   15.7970000   20.8410000  
C 11.0070000   16.9170000   21.5760000  
O  9.9840000   17.5150000   21.7880000  
O 16.4110000   20.7000000   24.3010000  
O 17.9290000   19.0510000   22.8500000  
H 13.8110000   15.6690000   21.3740000  
H 12.0650000   15.5940000   20.7590000  
H 11.9620000   19.1220000   22.9710000  
H 15.7400000   21.1290000   24.8930000  
H 18.0610000   19.8760000   23.3060000  
C 13.5340000   20.7280000   24.1900000  
C 12.8630000   20.3770000   25.3710000  
C 11.9270000   21.2610000   25.8810000  
C 11.6730000   22.4950000   25.3050000  
C 12.2430000   22.7730000   24.0760000  
C 13.1210000   21.9080000   23.4890000  
C 12.9020000   19.2470000   26.2160000  
C 11.9930000   19.5220000   27.2320000  
N 11.3600000   20.7670000   27.0270000  
O 12.1710000   17.4350000   28.4940000  
C 11.6200000   18.6830000   28.3410000  
O 10.7170000   19.0230000   29.0980000  
O 12.0270000   24.0400000   23.4780000  
O 13.6520000   22.2420000   22.2370000  
H 13.4440000   18.2270000   26.0820000  
H 12.8340000   17.4190000   27.8030000  
H 10.7130000   21.2450000   27.5570000  
H 12.3110000   24.0500000   22.5780000  
H 14.1820000   21.5220000   21.8810000  
H 10.9830000   23.2500000   25.7530000  
