78
000 
C 12.7460000   18.0420000   15.2360000  
C 11.6020000   17.2620000   15.1870000  
C 11.3670000   16.3360000   16.2200000  
C 12.1830000   16.2740000   17.2800000  
C 13.2440000   17.0950000   17.5000000  
C 13.5550000   17.9870000   16.3860000  
C 10.3850000   15.2580000   16.3840000  
C 10.6310000   14.7220000   17.6500000  
N 11.7480000   15.2870000   18.2040000  
O  8.7360000   13.3000000   17.4380000  
C  9.7180000   13.6820000   18.2030000  
O  9.7890000   13.2060000   19.3430000  
O 14.6990000   18.7150000   16.4830000  
O 13.0270000   18.9400000   14.2420000  
H 11.0020000   17.2620000   14.2760000  
H  9.5570000   14.9980000   15.7650000  
H  8.7750000   13.7940000   16.6870000  
H 11.9880000   15.1540000   19.1820000  
H 15.0680000   18.5120000   17.3720000  
H 13.7510000   19.5460000   14.5190000  
C 13.9990000   17.0620000   18.8060000  
C 14.8780000   15.9880000   19.2020000  
C 15.4810000   15.8870000   20.4460000  
C 15.4470000   16.9560000   21.3620000  
C 14.6970000   18.1120000   20.9880000  
C 13.9240000   18.1160000   19.7560000  
C 15.0540000   14.7010000   18.6750000  
C 15.6940000   13.8630000   19.5860000  
N 16.0780000   14.6650000   20.6640000  
O 15.5190000   11.8710000   18.3380000  
C 16.0920000   12.4710000   19.4000000  
O 16.8400000   11.8520000   20.1320000  
O 14.5480000   19.2290000   21.7340000  
O 13.1860000   19.2430000   19.5180000  
H 14.6940000   14.4370000   17.6920000  
H 14.9050000   12.4810000   17.9930000  
H 16.6900000   14.5570000   21.4670000  
H 15.1280000   19.2450000   22.4920000  
H 13.3420000   20.0300000   20.0670000  
C 16.1850000   16.8350000   22.6360000  
C 17.5750000   17.0350000   22.6130000  
C 18.3370000   16.9060000   23.6380000  
C 17.7750000   16.7530000   24.9500000  
C 16.3540000   16.5650000   25.0100000  
C 15.5190000   16.6280000   23.8840000  
C 18.3530000   17.4930000   21.4710000  
C 19.6690000   17.6600000   21.9700000  
N 19.6790000   17.3800000   23.3740000  
O 20.4760000   18.1500000   19.9490000  
C 20.7520000   18.2110000   21.2360000  
O 21.8170000   18.4570000   21.7550000  
O 15.7320000   16.3060000   26.2020000  
O 14.2150000   16.4040000   23.8430000  
H 17.9610000   17.7600000   20.4860000  
H 19.7440000   17.5630000   19.8980000  
H 20.4160000   17.4640000   24.1140000  
H 16.3640000   16.1750000   26.9460000  
H 13.8040000   16.4140000   24.7300000  
C 18.7050000   16.7890000   26.1250000  
C 18.5660000   17.7580000   27.1370000  
C 19.4160000   17.7950000   28.2120000  
C 20.5140000   16.9130000   28.4020000  
C 20.5920000   15.8600000   27.4130000  
C 19.7230000   15.8380000   26.2870000  
C 17.6530000   18.8190000   27.3560000  
C 18.0680000   19.5570000   28.5090000  
N 19.2290000   18.8950000   28.9260000  
O 16.3340000   21.3230000   28.4460000  
C 17.3550000   20.6840000   29.1470000  
O 17.6710000   21.1490000   30.1570000  
O 21.5720000   14.9400000   27.5480000  
O 19.8740000   14.8780000   25.3800000  
H 16.8370000   19.1860000   26.7340000  
H 16.0130000   20.6980000   27.7440000  
H 19.7550000   19.2300000   29.6700000  
H 21.2610000   14.1390000   27.0560000  
H 19.2140000   15.0870000   24.7570000  
H 21.1980000   16.9370000   29.2720000  
