78
000 
C 21.1380000   11.9800000   23.6400000  
C 22.3330000   11.9650000   22.7920000  
C 22.3310000   12.8960000   21.7010000  
C 21.3020000   13.7480000   21.4750000  
C 20.2250000   13.9120000   22.3140000  
C 20.1900000   13.0000000   23.4190000  
C 23.2760000   13.0900000   20.6440000  
C 22.8720000   14.1760000   19.8860000  
N 21.5960000   14.5260000   20.3950000  
O 24.8520000   14.2390000   18.4760000  
C 23.6490000   14.8570000   18.8510000  
O 23.1720000   15.8290000   18.2680000  
O 19.0160000   13.1080000   24.1850000  
O 21.0790000   11.1650000   24.7650000  
H 23.1540000   11.2750000   22.9980000  
H 24.1320000   12.4740000   20.4490000  
H 24.9600000   13.5010000   19.0810000  
H 21.0560000   15.2790000   20.0590000  
H 18.3860000   13.7490000   23.7520000  
H 20.3230000   11.3840000   25.3580000  
C 19.0680000   14.8230000   22.0060000  
C 17.7390000   14.3420000   21.7000000  
C 16.7460000   15.1640000   21.3930000  
C 16.8550000   16.5560000   21.3400000  
C 18.1920000   17.0800000   21.6160000  
C 19.2560000   16.2470000   21.9080000  
C 17.1900000   12.9830000   21.8200000  
C 15.7890000   13.1000000   21.7180000  
N 15.5110000   14.4400000   21.3570000  
O 15.1970000   10.8720000   21.5210000  
C 14.7520000   12.0980000   21.6560000  
O 13.5710000   12.3340000   21.6360000  
O 18.3820000   18.4710000   21.6110000  
O 20.5080000   16.8160000   22.1520000  
H 17.7110000   12.0570000   21.9330000  
H 16.1070000   10.9180000   21.8980000  
H 14.5880000   14.7880000   21.1180000  
H 17.6360000   18.9640000   21.1740000  
H 20.4460000   17.7790000   21.9910000  
C 15.6070000   17.4610000   21.2020000  
C 14.7410000   17.6170000   22.3460000  
C 13.5880000   18.3350000   22.2200000  
C 13.0440000   18.7680000   20.9320000  
C 13.8460000   18.5620000   19.8210000  
C 15.1370000   17.9580000   19.9280000  
C 14.8820000   17.2860000   23.7790000  
C 13.7140000   17.8060000   24.3700000  
N 12.9300000   18.3910000   23.3720000  
O 14.3960000   17.4700000   26.6510000  
C 13.3670000   17.9140000   25.8180000  
O 12.3230000   18.3900000   26.2870000  
O 13.4650000   19.0040000   18.5650000  
O 15.9360000   17.9360000   18.8480000  
H 15.6180000   16.7150000   24.3640000  
H 14.9890000   16.9770000   26.0400000  
H 12.1890000   19.0480000   23.5600000  
H 12.7720000   19.7090000   18.6820000  
H 15.3910000   17.9110000   18.0290000  
C 11.6190000   19.3550000   20.8780000  
C 11.3380000   20.3990000   21.7390000  
C 10.0510000   20.8600000   21.9130000  
C  8.9730000   20.4180000   21.1350000  
C  9.1910000   19.3470000   20.3010000  
C 10.4590000   18.7570000   20.2620000  
C 12.2220000   21.2060000   22.5550000  
C 11.4120000   22.0860000   23.2890000  
N 10.0690000   21.8730000   22.9020000  
O 13.1140000   22.9620000   24.6880000  
C 11.8270000   23.0990000   24.2840000  
O 11.1560000   24.0070000   24.7160000  
O  8.1050000   18.9080000   19.5800000  
O 10.6070000   17.7380000   19.3940000  
H 13.2780000   21.1420000   22.5170000  
H 13.5020000   22.1340000   24.4210000  
H  9.3050000   22.2400000   23.3760000  
H  8.3690000   18.2180000   18.9540000  
H 11.4310000   17.2490000   19.6460000  
H  7.9310000   20.5930000   21.3710000  
