78
000 
C 21.0540000   15.4150000   27.2940000  
C 20.5530000   14.3020000   28.0510000  
C 19.4140000   13.6330000   27.5190000  
C 18.7010000   14.1100000   26.3930000  
C 19.0680000   15.2610000   25.6610000  
C 20.3050000   15.8440000   26.1510000  
C 18.6340000   12.5160000   28.0310000  
C 17.5190000   12.4440000   27.2310000  
N 17.5430000   13.3780000   26.2180000  
O 16.7070000   10.4900000   28.3610000  
C 16.4240000   11.4490000   27.3750000  
O 15.4110000   11.3140000   26.6500000  
O 20.6660000   17.0360000   25.5480000  
O 22.1440000   16.1040000   27.7550000  
H 20.9680000   13.8880000   29.0110000  
H 18.7440000   11.9200000   28.9500000  
H 17.5120000   10.8180000   28.8800000  
H 16.7420000   13.7480000   25.6680000  
H 20.1930000   17.2030000   24.7110000  
H 22.3000000   16.9610000   27.2660000  
C 18.2280000   15.8580000   24.5770000  
C 16.8420000   16.1560000   24.8190000  
C 16.0630000   16.5080000   23.7870000  
C 16.4990000   16.6760000   22.4440000  
C 17.8740000   16.3730000   22.2250000  
C 18.7370000   15.9490000   23.2650000  
C 16.0070000   16.0010000   25.9450000  
C 14.6640000   16.2050000   25.5450000  
N 14.7370000   16.4190000   24.1780000  
O 13.4410000   15.6550000   27.6320000  
C 13.3770000   15.9790000   26.3030000  
O 12.3080000   16.1640000   25.7710000  
O 18.3260000   16.3840000   20.9360000  
O 19.9940000   15.4530000   22.9260000  
H 16.3090000   15.6760000   26.9450000  
H 14.3630000   15.7320000   27.9330000  
H 13.9480000   16.5160000   23.5250000  
H 17.5840000   16.5640000   20.3390000  
H 20.3640000   15.3470000   23.7860000  
C 15.5820000   17.2300000   21.4190000  
C 15.8670000   18.4810000   20.8550000  
C 15.0120000   19.0550000   19.9010000  
C 14.0400000   18.3610000   19.2330000  
C 13.6630000   17.1300000   19.8400000  
C 14.4080000   16.5720000   20.9690000  
C 16.9550000   19.4500000   21.0640000  
C 16.7420000   20.4700000   20.1340000  
N 15.5880000   20.2120000   19.3970000  
O 18.8480000   21.4450000   20.4880000  
C 17.6990000   21.5920000   19.8120000  
O 17.4890000   22.4490000   19.0130000  
O 12.6340000   16.3780000   19.4050000  
O 14.0010000   15.3650000   21.6010000  
H 17.6220000   19.3530000   21.9180000  
H 18.7610000   20.6440000   21.0290000  
H 15.2680000   20.7590000   18.6210000  
H 12.1520000   16.8790000   18.6660000  
H 13.2300000   15.0390000   21.1800000  
C 13.3400000   18.8750000   17.9760000  
C 13.5020000   18.2410000   16.7010000  
C 12.8090000   18.6860000   15.5730000  
C 11.9680000   19.8320000   15.6370000  
C 11.9010000   20.5310000   16.8120000  
C 12.5560000   20.0770000   17.9530000  
C 14.0160000   16.8940000   16.3630000  
C 13.6400000   16.6170000   15.0330000  
N 12.8860000   17.7120000   14.5610000  
O 15.0610000   14.7750000   14.8210000  
C 14.0770000   15.4340000   14.2410000  
O 13.8090000   15.0810000   13.0820000  
O 11.1870000   21.6550000   16.9150000  
O 12.3890000   20.8100000   19.1470000  
H 14.4290000   16.1430000   17.0810000  
H 15.2770000   15.3290000   15.5680000  
H 12.5640000   17.9070000   13.6060000  
H 11.3010000   21.9010000   17.8460000  
H 12.7880000   20.1840000   19.7930000  
H 11.4740000   20.2060000   14.7080000  
