78
000 
C 20.7680000   14.6320000   27.6160000  
C 21.4650000   13.6130000   26.8800000  
C 21.1780000   13.4930000   25.5400000  
C 20.2650000   14.2800000   24.9110000  
C 19.5250000   15.2720000   25.5450000  
C 19.7950000   15.4680000   26.9390000  
C 21.6920000   12.6250000   24.5000000  
C 21.1790000   13.0150000   23.2940000  
N 20.3530000   14.0920000   23.5520000  
O 22.5450000   11.5380000   22.0850000  
C 21.5810000   12.5000000   21.9710000  
O 21.1150000   12.9150000   20.9140000  
O 19.1670000   16.4840000   27.5710000  
O 20.9740000   14.7350000   29.0380000  
H 22.1780000   12.9660000   27.3990000  
H 22.3970000   11.8620000   24.7130000  
H 22.7130000   11.4320000   23.0190000  
H 19.7810000   14.5740000   22.8280000  
H 18.8150000   17.1340000   26.9470000  
H 20.4530000   15.4380000   29.4540000  
C 18.5500000   16.0150000   24.7450000  
C 17.2240000   15.5200000   24.6200000  
C 16.4930000   16.0130000   23.5760000  
C 16.8720000   16.9480000   22.5870000  
C 18.1550000   17.5320000   22.8100000  
C 18.9570000   17.0190000   23.8720000  
C 16.4900000   14.3780000   25.1420000  
C 15.3140000   14.2970000   24.4050000  
N 15.3240000   15.3050000   23.4430000  
O 14.4650000   12.5250000   25.8020000  
C 14.2740000   13.2760000   24.6680000  
O 13.2010000   13.2980000   24.0390000  
O 18.6000000   18.5810000   22.0100000  
O 20.2240000   17.4600000   24.0120000  
H 16.6570000   13.8630000   26.0240000  
H 15.3890000   12.6430000   25.9080000  
H 14.6640000   15.3520000   22.6790000  
H 17.8570000   18.9820000   21.4590000  
H 20.5270000   17.2560000   24.9120000  
C 16.0000000   17.2250000   21.4260000  
C 14.6310000   17.6160000   21.5880000  
C 13.9520000   18.0010000   20.4430000  
C 14.3730000   17.9570000   19.1240000  
C 15.7260000   17.4800000   18.9870000  
C 16.5440000   17.1630000   20.0940000  
C 13.7180000   17.7370000   22.6100000  
C 12.5210000   18.0740000   22.0400000  
N 12.5900000   18.1500000   20.6730000  
O 11.3240000   17.7190000   24.0600000  
C 11.2370000   18.0840000   22.7230000  
O 10.1620000   18.2410000   22.1920000  
O 16.2130000   17.2760000   17.7580000  
O 17.8670000   16.6840000   19.8410000  
H 13.9280000   17.5340000   23.7100000  
H 12.2910000   17.3990000   24.0710000  
H 11.8830000   18.3710000   20.0140000  
H 15.5120000   17.4460000   17.1230000  
H 17.8810000   16.5090000   18.8940000  
C 13.4780000   18.3090000   18.0370000  
C 12.7850000   19.5510000   18.0530000  
C 11.9570000   19.8660000   17.0850000  
C 11.5380000   18.9470000   16.1250000  
C 12.1150000   17.6680000   16.0910000  
C 13.1320000   17.3330000   17.0140000  
C 12.7760000   20.7450000   18.9660000  
C 11.8900000   21.7050000   18.4390000  
N 11.3960000   21.1090000   17.2440000  
O 11.8280000   23.2490000   20.2900000  
C 11.4340000   23.0360000   19.0170000  
O 10.6990000   23.8260000   18.4300000  
O 11.6690000   16.7130000   15.1540000  
O 13.7520000   16.0890000   17.0120000  
H 13.4660000   20.8750000   19.8220000  
H 12.3080000   22.4570000   20.5780000  
H 10.8030000   21.5820000   16.6010000  
H 12.1400000   15.8970000   15.1780000  
H 14.2250000   16.1330000   17.8620000  
H 10.8820000   19.3570000   15.4130000  
