78
000 
C 20.6430000   12.1580000   24.8530000  
C 20.8450000   12.2610000   26.2560000  
C 20.1310000   13.2370000   26.9630000  
C 19.2510000   14.0500000   26.3840000  
C 18.8580000   13.9320000   25.0220000  
C 19.6100000   12.9810000   24.2820000  
C 20.0380000   13.5020000   28.3450000  
C 19.0720000   14.5490000   28.4960000  
N 18.6660000   14.9130000   27.2550000  
O 18.8750000   14.5150000   30.8640000  
C 18.5670000   15.2200000   29.6960000  
O 17.8170000   16.1610000   29.7270000  
O 19.2260000   12.8600000   22.9810000  
O 21.4310000   11.2880000   24.1720000  
H 21.5740000   11.5520000   26.7020000  
H 20.5310000   12.9120000   29.1600000  
H 19.4670000   13.8060000   30.5580000  
H 17.9270000   15.6100000   27.1180000  
H 18.2750000   13.0270000   23.0190000  
H 21.1490000   11.2420000   23.2370000  
C 17.8750000   14.7770000   24.3670000  
C 18.3800000   15.6550000   23.4410000  
C 17.5320000   16.4450000   22.7080000  
C 16.0850000   16.5020000   22.9150000  
C 15.5890000   15.5540000   23.8550000  
C 16.4740000   14.7710000   24.6450000  
C 19.6660000   16.1800000   23.0930000  
C 19.4520000   17.0650000   22.0580000  
N 18.1070000   17.1870000   21.7840000  
O 21.7230000   17.6620000   21.8040000  
C 20.4800000   17.8610000   21.3270000  
O 20.1270000   18.6690000   20.4940000  
O 14.2210000   15.4700000   24.1270000  
O 15.9560000   13.9290000   25.5820000  
H 20.5590000   15.8430000   23.4800000  
H 21.6380000   16.9890000   22.4980000  
H 17.6460000   17.7550000   21.0230000  
H 13.7490000   16.0760000   23.4210000  
H 16.7070000   13.5060000   26.0730000  
C 15.2400000   17.3650000   22.0040000  
C 14.5310000   16.7210000   20.9920000  
C 13.9370000   17.4040000   19.9720000  
C 14.0760000   18.7830000   19.7560000  
C 14.6910000   19.4170000   20.8450000  
C 15.3130000   18.7710000   21.9290000  
C 14.2100000   15.3350000   20.7570000  
C 13.5370000   15.2360000   19.4960000  
N 13.3480000   16.5690000   19.0620000  
O 13.1800000   12.9300000   19.4010000  
C 13.0550000   14.0840000   18.7310000  
O 12.6430000   14.1530000   17.6410000  
O 15.0530000   20.7780000   20.6490000  
O 16.0130000   19.5010000   22.8670000  
H 14.5010000   14.4730000   21.4090000  
H 13.4900000   13.2820000   20.1970000  
H 12.7360000   16.9290000   18.3100000  
H 14.6960000   21.0640000   19.7930000  
H 16.3310000   20.3390000   22.3910000  
C 13.7570000   19.4560000   18.5370000  
C 12.4360000   19.6370000   18.0610000  
C 12.1660000   20.4550000   16.9630000  
C 13.2140000   21.1860000   16.2880000  
C 14.5190000   20.8470000   16.6460000  
C 14.7860000   20.0070000   17.7380000  
C 11.0880000   19.2730000   18.5280000  
C 10.1420000   19.8340000   17.6790000  
N 10.8300000   20.5290000   16.6910000  
O  8.2520000   19.1170000   18.9930000  
C  8.6500000   19.7360000   17.8850000  
O  7.8240000   20.1190000   17.1050000  
O 15.5080000   21.5120000   15.9300000  
O 16.0830000   19.7810000   18.0170000  
H 10.8460000   18.5670000   19.3130000  
H  9.0830000   19.0210000   19.5020000  
H 10.4610000   21.1030000   15.9760000  
H 16.4260000   21.1270000   16.0850000  
H 16.0960000   19.2490000   18.8260000  
H 13.0350000   21.9170000   15.4650000  
