78
000 
C 12.2650000   18.0240000   15.9720000  
C 11.5820000   16.9330000   15.4330000  
C 11.5160000   15.7750000   16.2260000  
C 12.1640000   15.7050000   17.4150000  
C 12.7350000   16.7630000   18.0460000  
C 12.7310000   17.9820000   17.3280000  
C 10.8800000   14.4830000   16.0640000  
C 11.0560000   13.7690000   17.2980000  
N 12.0340000   14.4700000   18.0140000  
O  9.4240000   12.0800000   16.7440000  
C 10.4280000   12.4530000   17.6210000  
O 10.6990000   11.7500000   18.5930000  
O 13.4670000   19.0600000   17.8120000  
O 12.4990000   19.1140000   15.1630000  
H 11.0880000   16.9880000   14.4230000  
H 10.2030000   14.3150000   15.2310000  
H  9.3330000   12.8220000   16.1430000  
H 12.4900000   14.1080000   18.8460000  
H 13.7260000   18.8700000   18.7460000  
H 12.7690000   19.8140000   15.7780000  
C 13.5870000   16.5380000   19.2430000  
C 14.9580000   16.5140000   19.0610000  
C 15.8000000   16.4860000   20.0620000  
C 15.4070000   16.4530000   21.4010000  
C 14.0210000   16.4090000   21.6270000  
C 13.1110000   16.5150000   20.5850000  
C 15.7720000   16.4640000   17.8380000  
C 17.1190000   16.3550000   18.2110000  
N 17.1010000   16.3490000   19.6330000  
O 18.2890000   16.2120000   16.0340000  
C 18.3980000   16.1690000   17.4250000  
O 19.4990000   15.8800000   17.8940000  
O 13.4870000   16.3640000   22.8920000  
O 11.7320000   16.6130000   20.8070000  
H 15.4480000   16.3650000   16.7990000  
H 17.3800000   16.4980000   15.8370000  
H 17.9280000   16.2660000   20.2030000  
H 14.2430000   16.1820000   23.4160000  
H 11.2360000   16.5810000   19.9360000  
C 16.3490000   16.3530000   22.4770000  
C 16.7990000   17.4970000   23.1430000  
C 17.7130000   17.4680000   24.1220000  
C 18.3540000   16.2600000   24.5550000  
C 17.8580000   15.0490000   23.9380000  
C 16.8850000   15.1310000   22.9340000  
C 16.3800000   18.8770000   22.9180000  
C 17.1930000   19.6410000   23.7380000  
N 17.9650000   18.7830000   24.5630000  
O 16.3250000   21.8540000   23.1310000  
C 17.1240000   21.1260000   23.9470000  
O 17.7170000   21.6720000   24.9050000  
O 18.3050000   13.8810000   24.5620000  
O 16.4100000   13.9650000   22.3280000  
H 15.6070000   19.2570000   22.1840000  
H 16.0450000   21.2210000   22.4130000  
H 18.6420000   19.0680000   25.2650000  
H 18.4400000   14.1640000   25.4750000  
H 17.1330000   13.3120000   22.4770000  
C 19.3170000   16.4700000   25.6440000  
C 18.9120000   17.1550000   26.8320000  
C 19.7780000   17.4000000   27.8380000  
C 21.1420000   17.0200000   27.7360000  
C 21.5930000   16.3960000   26.5910000  
C 20.7110000   16.2070000   25.5030000  
C 17.6040000   17.6690000   27.2790000  
C 17.7750000   18.1780000   28.5470000  
N 19.1140000   18.0400000   28.8880000  
O 15.5020000   18.6730000   28.8560000  
C 16.7350000   18.6880000   29.3830000  
O 16.9100000   19.1570000   30.4640000  
O 22.9410000   16.1270000   26.4550000  
O 21.2350000   15.6250000   24.3440000  
H 16.6900000   17.6080000   26.8050000  
H 15.6740000   18.3970000   27.9480000  
H 19.5800000   18.5140000   29.6440000  
H 23.0250000   15.4750000   25.7080000  
H 20.4730000   15.4090000   23.7280000  
H 21.7990000   17.0760000   28.6200000  
