78
000 
C 13.5430000   15.8800000   29.1500000  
C 14.6980000   15.7780000   29.9340000  
C 15.9620000   15.9810000   29.2990000  
C 15.9620000   16.2160000   27.9640000  
C 14.8910000   16.2210000   27.0570000  
C 13.6130000   16.0080000   27.7480000  
C 17.3500000   16.1170000   29.7320000  
C 18.1180000   16.3830000   28.5710000  
N 17.1790000   16.3780000   27.4600000  
O 20.3740000   16.5150000   29.6530000  
C 19.6340000   16.4620000   28.4840000  
O 20.2420000   16.5170000   27.4470000  
O 12.5030000   15.9110000   26.9830000  
O 12.4100000   15.9840000   29.7380000  
H 14.6000000   15.6120000   30.9900000  
H 17.6650000   16.0210000   30.7430000  
H 19.7910000   16.3150000   30.4310000  
H 17.4140000   16.4000000   26.4700000  
H 12.7130000   15.9990000   25.9860000  
H 11.7230000   16.2630000   29.1100000  
C 15.0220000   16.5030000   25.5350000  
C 15.8580000   15.5640000   24.8110000  
C 16.0340000   15.6630000   23.4770000  
C 15.5880000   16.7530000   22.7270000  
C 14.7400000   17.6760000   23.3820000  
C 14.4780000   17.5840000   24.8200000  
C 16.6820000   14.4130000   25.1960000  
C 17.1680000   13.7820000   24.0760000  
N 16.8260000   14.6370000   22.9880000  
O 18.2700000   11.9760000   25.1190000  
C 17.8470000   12.4920000   23.9470000  
O 18.0810000   11.8720000   22.9300000  
O 14.2280000   18.8130000   22.7530000  
O 13.8850000   18.6150000   25.4370000  
H 16.7940000   14.0180000   26.1690000  
H 17.9740000   12.6110000   25.7670000  
H 16.9590000   14.4230000   22.0230000  
H 14.5690000   18.7500000   21.8280000  
H 13.8840000   18.5560000   26.3890000  
C 16.0150000   16.9340000   21.3080000  
C 15.0330000   16.7890000   20.2650000  
C 15.3570000   16.9860000   18.9890000  
C 16.6200000   17.1810000   18.4900000  
C 17.6470000   17.3000000   19.4920000  
C 17.3100000   17.2330000   20.8680000  
C 13.5580000   16.5480000   20.2560000  
C 13.1970000   16.4520000   18.9250000  
N 14.3100000   16.7620000   18.1100000  
O 10.9460000   15.8440000   19.3720000  
C 11.8250000   16.2760000   18.4110000  
O 11.5080000   16.5790000   17.2800000  
O 18.9000000   17.4300000   19.1130000  
O 18.3100000   17.4280000   21.8070000  
H 12.8960000   16.4890000   21.1520000  
H 11.5820000   15.9620000   20.0900000  
H 14.3890000   16.6640000   17.0820000  
H 18.7770000   17.3250000   18.1830000  
H 19.0960000   17.5620000   21.2250000  
C 16.8770000   17.2920000   17.0400000  
C 16.7990000   18.4670000   16.3360000  
C 16.8480000   18.4390000   14.9340000  
C 16.9840000   17.2280000   14.2160000  
C 17.1100000   16.0810000   14.9470000  
C 17.0930000   16.0410000   16.3790000  
C 16.2870000   19.7620000   16.6590000  
C 15.9980000   20.4490000   15.4580000  
N 16.4210000   19.5900000   14.4110000  
O 15.1930000   22.4690000   16.5090000  
C 15.4180000   21.8540000   15.3020000  
O 15.3110000   22.3460000   14.1920000  
O 17.2940000   14.8740000   14.3440000  
O 17.1570000   14.8730000   16.9970000  
H 16.0970000   20.1360000   17.6300000  
H 15.5930000   21.7910000   17.0680000  
H 16.2270000   19.7860000   13.4540000  
H 17.4340000   14.2340000   15.0890000  
H 16.7240000   14.8230000   17.8270000  
H 16.9900000   17.1590000   13.1530000  
