78
000 
C  9.7450000   20.3210000   23.4480000  
C  8.9540000   19.6560000   24.3470000  
C  9.6090000   18.6060000   25.1050000  
C 10.9080000   18.3380000   24.9030000  
C 11.7610000   18.9520000   23.9080000  
C 11.1100000   19.9700000   23.2190000  
C  9.1590000   17.6970000   26.1110000  
C 10.1080000   16.7840000   26.3900000  
N 11.2440000   17.1880000   25.6630000  
O  8.7570000   15.3150000   27.8740000  
C  9.9780000   15.5760000   27.2990000  
O 10.9110000   14.8550000   27.5390000  
O 11.7650000   20.5560000   22.1460000  
O  9.2770000   21.3910000   22.7560000  
H  7.9290000   19.9140000   24.5840000  
H  8.2310000   17.6580000   26.5790000  
H  8.2320000   15.9670000   27.3900000  
H 12.1590000   16.7060000   25.5940000  
H 12.5630000   20.0150000   22.0440000  
H 10.1170000   21.8810000   22.4940000  
C 13.0450000   18.3410000   23.5700000  
C 13.0960000   17.0120000   23.0520000  
C 14.2860000   16.5080000   22.5760000  
C 15.5320000   17.1120000   22.6270000  
C 15.5130000   18.3820000   23.2600000  
C 14.2840000   19.0150000   23.6940000  
C 12.1150000   16.0620000   22.6750000  
C 12.7450000   14.9670000   22.0700000  
N 14.1360000   15.2510000   22.0740000  
O 10.6630000   13.9890000   21.5450000  
C 12.0100000   13.8190000   21.6020000  
O 12.5510000   12.8700000   21.1770000  
O 16.6660000   19.0000000   23.4070000  
O 14.2850000   20.3340000   24.1810000  
H 11.0390000   16.1510000   22.8770000  
H 10.4910000   14.9190000   21.7360000  
H 14.8100000   14.6560000   21.6520000  
H 17.3860000   18.3640000   23.2510000  
H 15.1650000   20.6570000   24.3280000  
C 16.8090000   16.5310000   21.9950000  
C 16.8720000   16.1120000   20.6540000  
C 18.0660000   15.7530000   20.1260000  
C 19.3110000   15.7180000   20.8040000  
C 19.2320000   16.0810000   22.1710000  
C 17.9990000   16.4640000   22.7290000  
C 15.8870000   16.1270000   19.5490000  
C 16.5890000   15.6420000   18.4560000  
N 17.9650000   15.6760000   18.7570000  
O 14.7150000   15.5050000   17.0740000  
C 16.0420000   15.3190000   17.1040000  
O 16.7260000   15.0820000   16.0800000  
O 20.3900000   15.9610000   22.8830000  
O 17.9340000   16.6610000   24.0800000  
H 14.8700000   16.4380000   19.6150000  
H 14.5790000   15.7660000   17.9890000  
H 18.7140000   15.4290000   18.1450000  
H 21.1010000   15.6970000   22.2780000  
H 18.8090000   16.8150000   24.5030000  
C 20.6060000   15.3610000   20.1580000  
C 21.7230000   16.2540000   20.1750000  
C 22.8400000   15.9460000   19.4110000  
C 23.0240000   14.7680000   18.6740000  
C 21.9750000   13.8110000   18.7330000  
C 20.7250000   14.1700000   19.4030000  
C 21.9490000   17.5510000   20.8070000  
C 23.1340000   17.9880000   20.2730000  
N 23.6980000   17.0310000   19.4460000  
O 23.2310000   20.1940000   21.3300000  
C 23.8170000   19.2920000   20.4260000  
O 24.8820000   19.6560000   19.8710000  
O 22.1330000   12.6240000   18.0730000  
O 19.7460000   13.2350000   19.3650000  
H 21.2850000   18.1220000   21.5130000  
H 22.3960000   19.8570000   21.5840000  
H 24.3880000   17.2700000   18.8240000  
H 21.5010000   12.0120000   18.3980000  
H 18.9700000   13.6200000   19.7670000  
H 23.8580000   14.5340000   17.9720000  
