78
000 
C 11.4160000   17.1230000   16.3900000  
C 10.0350000   17.2950000   16.6160000  
C  9.6730000   17.4600000   17.9580000  
C 10.6210000   17.4830000   18.9840000  
C 12.0180000   17.4230000   18.7530000  
C 12.4210000   17.2390000   17.4030000  
C  8.3700000   17.9040000   18.5790000  
C  8.6110000   17.9870000   19.9090000  
N  9.9970000   17.8120000   20.1660000  
O  6.4410000   18.6960000   20.6090000  
C  7.6490000   18.3300000   21.0220000  
O  8.0040000   18.4210000   22.2010000  
O 13.7270000   17.1330000   16.9500000  
O 11.7320000   17.0900000   15.0400000  
H  9.3980000   17.4280000   15.6990000  
H  7.4220000   17.8660000   18.0610000  
H  6.3850000   18.5290000   19.6600000  
H 10.3750000   17.7530000   21.1230000  
H 14.3580000   17.4480000   17.6210000  
H 12.5780000   16.6980000   14.8620000  
C 13.0240000   17.4190000   19.8380000  
C 12.9830000   16.3710000   20.7790000  
C 14.0290000   16.2440000   21.6430000  
C 15.0730000   17.1660000   21.9080000  
C 15.1840000   18.2070000   20.8790000  
C 14.2020000   18.2660000   19.8590000  
C 12.1140000   15.2230000   21.0060000  
C 12.6490000   14.6140000   22.1520000  
N 13.8140000   15.2640000   22.5850000  
O 10.9750000   12.9100000   22.3810000  
C 12.0920000   13.4510000   22.8530000  
O 12.6620000   12.9810000   23.8350000  
O 16.3240000   18.8810000   20.8700000  
O 14.3950000   19.1250000   18.8330000  
H 11.1720000   14.9430000   20.5320000  
H 10.8030000   13.3600000   21.6040000  
H 14.3120000   15.1630000   23.4140000  
H 16.9930000   18.3470000   21.3230000  
H 15.0940000   19.7060000   19.1230000  
C 16.2320000   16.8650000   22.8000000  
C 17.3650000   16.1340000   22.3290000  
C 18.5720000   16.0530000   23.0960000  
C 18.6920000   16.6670000   24.2860000  
C 17.5270000   17.3230000   24.7760000  
C 16.3000000   17.3760000   24.1170000  
C 17.7800000   15.6730000   21.0590000  
C 19.0880000   15.2390000   21.1030000  
N 19.5620000   15.4440000   22.4110000  
O 19.5000000   15.0720000   18.7280000  
C 20.0410000   14.9670000   19.9500000  
O 21.2060000   14.7010000   20.1080000  
O 17.5340000   17.9370000   26.0330000  
O 15.1990000   18.0260000   24.6320000  
H 17.1540000   15.6980000   20.2340000  
H 18.5480000   15.0580000   18.8360000  
H 20.5040000   15.2440000   22.7870000  
H 18.5160000   18.0100000   26.2740000  
H 15.3860000   18.1870000   25.5690000  
C 19.8880000   16.5680000   25.2230000  
C 21.1830000   16.9670000   24.7750000  
C 22.3580000   16.6500000   25.4280000  
C 22.2880000   15.9620000   26.6540000  
C 21.0510000   15.4510000   27.1050000  
C 19.9190000   15.7970000   26.3570000  
C 21.6220000   17.7590000   23.6470000  
C 22.9880000   17.9100000   23.7540000  
N 23.4480000   17.2190000   24.8600000  
O 23.3720000   19.5400000   21.9930000  
C 23.9370000   18.6330000   22.8970000  
O 25.1560000   18.6340000   22.9900000  
O 21.0190000   14.6790000   28.2750000  
O 18.7680000   15.1730000   26.8150000  
H 21.0040000   18.4010000   23.0180000  
H 22.4720000   19.3800000   22.0750000  
H 24.3860000   17.1450000   25.1800000  
H 20.0930000   14.6360000   28.6040000  
H 18.1940000   14.8680000   26.0680000  
H 23.1980000   15.6870000   27.2280000  
