78
000 
C 15.4670000   17.8910000   29.3310000  
C 16.2480000   16.8830000   29.9750000  
C 16.7380000   15.8330000   29.2170000  
C 16.5140000   15.8100000   27.8930000  
C 15.8710000   16.7790000   27.1320000  
C 15.2430000   17.7860000   27.9560000  
C 17.5990000   14.6990000   29.5630000  
C 17.7470000   14.0060000   28.3720000  
N 17.1110000   14.6810000   27.3370000  
O 19.1210000   12.2690000   29.3710000  
C 18.4360000   12.6910000   28.2720000  
O 18.4470000   11.9560000   27.2990000  
O 14.3870000   18.6900000   27.3420000  
O 14.8790000   18.8790000   30.0480000  
H 16.3790000   16.9740000   31.0550000  
H 18.1360000   14.5950000   30.5050000  
H 18.8810000   13.0260000   29.8760000  
H 17.4020000   14.5400000   26.3520000  
H 14.3870000   18.4470000   26.4260000  
H 14.3700000   19.4260000   29.4070000  
C 15.8530000   16.7590000   25.6710000  
C 14.6870000   16.6120000   24.9320000  
C 14.6670000   16.6890000   23.5460000  
C 15.8120000   16.9410000   22.7970000  
C 17.0030000   17.0350000   23.4990000  
C 17.0500000   16.9100000   24.9190000  
C 13.3010000   16.2250000   25.2910000  
C 12.5760000   16.1350000   24.1180000  
N 13.4020000   16.4700000   23.0250000  
O 10.5690000   15.2520000   25.1200000  
C 11.1680000   15.6260000   23.9490000  
O 10.6090000   15.6360000   22.8670000  
O 18.1980000   17.2120000   22.8230000  
O 18.2810000   17.0970000   25.4550000  
H 12.9480000   15.9180000   26.2870000  
H 11.2480000   15.2070000   25.7430000  
H 13.0940000   16.6440000   22.1390000  
H 17.9070000   17.5040000   21.9660000  
H 18.8660000   17.1840000   24.6840000  
C 15.7670000   16.9110000   21.2770000  
C 16.2830000   18.0030000   20.5670000  
C 16.2560000   17.9950000   19.1850000  
C 15.6610000   16.9180000   18.4160000  
C 15.1450000   15.8180000   19.1290000  
C 15.2540000   15.7950000   20.4940000  
C 16.6680000   19.3590000   20.9470000  
C 16.9040000   20.0010000   19.7150000  
N 16.5910000   19.2110000   18.6580000  
O 17.6910000   21.9930000   20.7340000  
C 17.3690000   21.3500000   19.5730000  
O 17.4780000   21.8910000   18.5030000  
O 14.6320000   14.7710000   18.5110000  
O 14.9770000   14.6130000   21.1500000  
H 16.5120000   19.8240000   21.8840000  
H 17.6550000   21.2700000   21.4180000  
H 16.4610000   19.5080000   17.7380000  
H 14.8400000   14.8200000   17.5890000  
H 14.6590000   14.0000000   20.4460000  
C 15.3590000   17.0100000   16.9430000  
C 16.3710000   17.0560000   15.9480000  
C 16.0120000   16.9530000   14.5970000  
C 14.7150000   16.8050000   14.1390000  
C 13.6760000   16.8540000   15.0630000  
C 13.9970000   17.0050000   16.4680000  
C 17.7380000   16.7690000   16.1460000  
C 18.2390000   16.6200000   14.7960000  
N 17.1340000   16.6720000   13.8750000  
O 20.6330000   16.3200000   15.2790000  
C 19.6640000   16.4570000   14.3260000  
O 19.9780000   16.3800000   13.1720000  
O 12.3620000   16.5790000   14.7630000  
O 12.9520000   17.0310000   17.4170000  
H 18.2850000   16.9300000   17.0280000  
H 20.0850000   16.2920000   16.0360000  
H 17.1470000   16.5870000   12.8750000  
H 11.8360000   16.8260000   15.5140000  
H 13.3130000   16.6580000   18.2920000  
H 14.4410000   16.6270000   13.0710000  
