78
000 
C 15.9510000   14.7520000   29.3170000  
C 14.6220000   15.0600000   29.6750000  
C 13.7930000   15.5890000   28.6840000  
C 14.3160000   15.8150000   27.4120000  
C 15.6120000   15.5210000   26.9660000  
C 16.4130000   14.9860000   28.0040000  
C 12.4060000   16.0720000   28.6690000  
C 12.1780000   16.4450000   27.3900000  
N 13.2680000   16.2170000   26.5740000  
O  9.9070000   17.0750000   27.7650000  
C 10.9030000   17.0510000   26.9110000  
O 10.7360000   17.4460000   25.7830000  
O 17.6980000   14.7180000   27.7060000  
O 16.8510000   14.3590000   30.2370000  
H 14.2100000   15.0130000   30.7250000  
H 11.7060000   16.1000000   29.5210000  
H 10.2700000   16.7330000   28.5540000  
H 13.3430000   16.4920000   25.6600000  
H 17.8810000   14.8010000   26.7690000  
H 17.6740000   14.0480000   29.8220000  
C 16.0190000   15.7040000   25.4710000  
C 16.6940000   16.8820000   25.0970000  
C 16.8540000   17.2590000   23.8220000  
C 16.3710000   16.4570000   22.7640000  
C 15.8550000   15.1590000   23.0820000  
C 15.6350000   14.7900000   24.4280000  
C 17.2310000   17.9340000   25.9240000  
C 17.7640000   18.8860000   25.0400000  
N 17.4420000   18.5070000   23.7070000  
O 18.1670000   20.4940000   26.7300000  
C 18.0920000   20.3070000   25.3910000  
O 18.3250000   21.1670000   24.5760000  
O 15.5140000   14.3150000   22.0910000  
O 15.0790000   13.6450000   24.8090000  
H 17.2570000   18.0450000   26.9980000  
H 18.2370000   19.6160000   27.1100000  
H 17.2250000   19.2020000   23.0020000  
H 15.9100000   14.8920000   21.2940000  
H 14.3910000   13.7220000   25.5240000  
C 16.4350000   16.9690000   21.2960000  
C 17.3780000   16.5540000   20.3600000  
C 17.3800000   17.1460000   19.1040000  
C 16.4290000   18.0860000   18.5900000  
C 15.5590000   18.5520000   19.6220000  
C 15.5680000   18.0070000   20.9260000  
C 18.3450000   15.5050000   20.3940000  
C 18.8610000   15.4460000   19.0840000  
N 18.0910000   16.2750000   18.2810000  
O 20.9070000   14.1920000   19.6970000  
C 20.1030000   14.6880000   18.7230000  
O 20.3350000   14.4820000   17.5440000  
O 14.6810000   19.4820000   19.2990000  
O 14.6730000   18.4480000   21.8850000  
H 18.7180000   14.8970000   21.2370000  
H 20.6500000   14.6040000   20.5340000  
H 18.0950000   16.3190000   17.2760000  
H 14.7630000   19.7710000   18.3990000  
H 13.9420000   18.8180000   21.4910000  
C 16.2050000   18.3330000   17.1310000  
C 15.7970000   17.3100000   16.3280000  
C 15.5940000   17.5360000   14.9880000  
C 15.8820000   18.7300000   14.3080000  
C 16.3670000   19.7640000   15.1360000  
C 16.4890000   19.5950000   16.5440000  
C 15.2380000   15.9780000   16.5330000  
C 14.8630000   15.4470000   15.3200000  
N 15.0710000   16.4120000   14.2940000  
O 14.2690000   13.3420000   16.2670000  
C 14.4200000   14.0470000   15.1040000  
O 14.0980000   13.4970000   14.0420000  
O 16.7660000   20.9230000   14.5310000  
O 17.0740000   20.5960000   17.2810000  
H 15.0640000   15.4540000   17.4810000  
H 14.2710000   13.9870000   17.0210000  
H 15.0110000   16.2470000   13.3090000  
H 17.3020000   21.4890000   15.0890000  
H 17.4280000   20.2130000   18.0600000  
H 15.6650000   18.8150000   13.2210000  
