78
000 
C 12.3620000   16.2380000   28.2650000  
C 11.0490000   15.8930000   27.9190000  
C 10.6690000   15.8000000   26.5530000  
C 11.6230000   16.0920000   25.6680000  
C 12.9570000   16.4980000   25.8650000  
C 13.2650000   16.6470000   27.2330000  
C  9.3930000   15.5920000   25.9210000  
C  9.6700000   15.7680000   24.5570000  
N 11.0350000   16.1220000   24.3950000  
O  7.5860000   15.3540000   23.6310000  
C  8.8340000   15.5820000   23.3940000  
O  9.2170000   15.6710000   22.2230000  
O 14.4900000   17.1480000   27.5980000  
O 12.7210000   16.2400000   29.5540000  
H 10.3210000   15.5800000   28.7130000  
H  8.4880000   15.2310000   26.4420000  
H  7.5570000   15.2330000   24.6580000  
H 11.4820000   16.2550000   23.5350000  
H 15.0810000   17.0010000   26.7800000  
H 13.6470000   15.9710000   29.5460000  
C 13.8750000   16.8050000   24.7030000  
C 13.9140000   18.0970000   24.0870000  
C 14.9010000   18.3130000   23.1540000  
C 15.7580000   17.3590000   22.6040000  
C 15.5850000   16.0660000   23.1110000  
C 14.7230000   15.8270000   24.1890000  
C 13.3410000   19.3870000   24.3660000  
C 14.0020000   20.3300000   23.5500000  
N 14.9890000   19.6520000   22.8570000  
O 12.9500000   22.3280000   24.4100000  
C 13.8420000   21.8010000   23.5350000  
O 14.5010000   22.4860000   22.7600000  
O 16.3580000   15.0410000   22.5890000  
O 14.7520000   14.5460000   24.6790000  
H 12.5440000   19.4770000   25.1030000  
H 12.7020000   21.5190000   24.9410000  
H 15.6700000   20.1260000   22.3540000  
H 16.7270000   15.4290000   21.7060000  
H 14.6970000   14.5130000   25.6380000  
C 16.6330000   17.6210000   21.4500000  
C 18.0280000   17.5900000   21.5720000  
C 18.8330000   17.5580000   20.4450000  
C 18.4010000   17.4210000   19.1010000  
C 17.0100000   17.5150000   18.9810000  
C 16.1650000   17.5720000   20.0930000  
C 18.9000000   17.4320000   22.7110000  
C 20.1750000   17.1900000   22.2000000  
N 20.1310000   17.4150000   20.8280000  
O 21.3210000   16.7930000   24.3020000  
C 21.4190000   16.7800000   22.9760000  
O 22.4640000   16.3650000   22.4520000  
O 16.4950000   17.3980000   17.6890000  
O 14.8200000   17.4610000   19.8080000  
H 18.5680000   17.3570000   23.7780000  
H 20.3760000   16.8640000   24.4060000  
H 20.9200000   17.7760000   20.2890000  
H 17.2660000   17.2960000   17.1150000  
H 14.7210000   17.2380000   18.9180000  
C 19.3080000   17.0010000   17.9810000  
C 19.2810000   15.6020000   17.6040000  
C 19.8970000   15.1740000   16.4580000  
C 20.8510000   15.9860000   15.7500000  
C 20.9510000   17.3760000   16.1260000  
C 20.1490000   17.8610000   17.2230000  
C 18.5350000   14.5240000   18.2110000  
C 18.7150000   13.4670000   17.3510000  
N 19.5200000   13.8720000   16.2620000  
O 17.4620000   11.9160000   18.5480000  
C 18.0410000   12.1240000   17.3580000  
O 18.1220000   11.3070000   16.4990000  
O 21.8090000   18.2960000   15.5460000  
O 20.3610000   19.0970000   17.6880000  
H 17.8300000   14.5750000   19.0500000  
H 17.6270000   12.7710000   18.9110000  
H 19.9720000   13.2150000   15.6150000  
H 21.5830000   19.0830000   16.0780000  
H 19.6840000   19.3320000   18.3520000  
H 21.5510000   15.7010000   14.9080000  
