78
000 
C 15.3180000   12.2030000   15.8850000  
C 16.6170000   11.6970000   15.5510000  
C 17.7110000   12.1830000   16.2780000  
C 17.4910000   13.0680000   17.3300000  
C 16.2170000   13.4770000   17.8010000  
C 15.1090000   12.9810000   17.0560000  
C 19.1660000   11.9230000   16.1920000  
C 19.7030000   12.6840000   17.2530000  
N 18.6730000   13.3050000   18.0270000  
O 21.8200000   11.9870000   16.5230000  
C 21.1520000   12.6960000   17.4770000  
O 21.6110000   13.3900000   18.3850000  
O 13.7600000   13.2450000   17.3670000  
O 14.2370000   12.0210000   15.0710000  
H 16.7450000   11.0670000   14.7060000  
H 19.7050000   11.2750000   15.5200000  
H 21.1960000   11.5440000   16.0060000  
H 18.8340000   14.0160000   18.7620000  
H 13.6990000   13.9840000   18.0220000  
H 13.4380000   12.3590000   15.5500000  
C 16.1020000   14.3630000   19.0380000  
C 16.7530000   15.6060000   19.0960000  
C 16.6230000   16.3580000   20.2450000  
C 15.8490000   15.9850000   21.3910000  
C 15.2880000   14.6570000   21.3340000  
C 15.4120000   13.8290000   20.1460000  
C 17.5860000   16.3850000   18.1830000  
C 17.8720000   17.5780000   18.8130000  
N 17.3190000   17.5410000   20.1090000  
O 19.3660000   18.4100000   17.1420000  
C 18.6610000   18.7110000   18.2360000  
O 18.7140000   19.8190000   18.7600000  
O 14.5350000   14.3550000   22.4260000  
O 14.8900000   12.5940000   20.1060000  
H 17.9610000   16.0770000   17.2680000  
H 19.3210000   17.4110000   17.0740000  
H 17.3680000   18.3300000   20.7260000  
H 14.5890000   15.2200000   22.9570000  
H 15.3980000   12.1360000   19.4100000  
C 15.8680000   16.8760000   22.5760000  
C 14.7890000   17.6040000   22.9010000  
C 14.7930000   18.6440000   23.8380000  
C 15.8290000   18.9030000   24.7660000  
C 16.9670000   18.0600000   24.4990000  
C 16.9970000   17.1050000   23.4070000  
C 13.3830000   17.5320000   22.4120000  
C 12.7030000   18.5960000   23.0670000  
N 13.5570000   19.2590000   23.9720000  
O 10.6170000   18.3930000   21.8920000  
C 11.3050000   19.1300000   22.8720000  
O 10.8540000   20.0690000   23.5080000  
O 18.1340000   18.3940000   25.1350000  
O 18.1500000   16.3280000   23.2680000  
H 12.9760000   16.9910000   21.6100000  
H 11.1680000   17.6740000   21.5880000  
H 13.2730000   20.0790000   24.4870000  
H 17.7750000   18.7230000   25.9740000  
H 18.7370000   16.7060000   23.9530000  
C 15.7290000   19.8690000   25.8840000  
C 14.9270000   19.6570000   26.9810000  
C 14.7740000   20.5250000   28.0410000  
C 15.4150000   21.7560000   28.1080000  
C 16.2510000   22.0000000   27.0100000  
C 16.4430000   21.0520000   25.9940000  
C 14.0280000   18.5350000   27.2980000  
C 13.3930000   18.7990000   28.4880000  
N 13.8180000   20.0160000   28.9350000  
O 11.9130000   16.8300000   28.5690000  
C 12.3080000   17.9400000   29.1870000  
O 11.7970000   18.2470000   30.2640000  
O 17.0000000   23.1550000   27.0940000  
O 17.2270000   21.4110000   24.9030000  
H 13.8840000   17.6690000   26.6410000  
H 12.4280000   16.7510000   27.7750000  
H 13.5590000   20.4460000   29.8110000  
H 17.8420000   22.8890000   26.7320000  
H 17.1820000   20.8200000   24.1430000  
H 15.3640000   22.4740000   28.9430000  
