78
000 
C  9.9660000   14.9210000   25.8660000  
C  9.8530000   15.7840000   26.9760000  
C 10.5520000   16.9240000   26.9600000  
C 11.4440000   17.1630000   25.9420000  
C 11.6540000   16.3370000   24.8440000  
C 10.7920000   15.1620000   24.7460000  
C 10.5550000   18.0930000   27.7760000  
C 11.5930000   18.9090000   27.3350000  
N 12.1100000   18.3460000   26.1610000  
O 11.2460000   20.6630000   28.8850000  
C 12.0050000   20.1980000   27.9080000  
O 12.9170000   20.8480000   27.3900000  
O 10.8560000   14.2620000   23.6800000  
O  9.1750000   13.8040000   25.9200000  
H  9.0720000   15.6160000   27.7490000  
H  9.9260000   18.2290000   28.6130000  
H 10.5610000   19.9660000   29.0230000  
H 12.9520000   18.6960000   25.6920000  
H 11.3820000   14.5940000   22.9400000  
H  9.2800000   13.1940000   25.1710000  
C 12.7240000   16.6540000   23.8920000  
C 14.0580000   16.8720000   24.3000000  
C 15.0900000   16.9960000   23.4050000  
C 14.9610000   17.0230000   22.0550000  
C 13.5960000   16.8910000   21.5850000  
C 12.5040000   16.7210000   22.4410000  
C 14.6500000   16.9470000   25.6360000  
C 16.0190000   17.0540000   25.4730000  
N 16.2680000   17.0980000   24.1230000  
O 16.4850000   17.0700000   27.8030000  
C 17.0220000   17.0000000   26.5240000  
O 18.2240000   16.9790000   26.4300000  
O 13.3430000   16.8760000   20.2350000  
O 11.1850000   16.5350000   21.8590000  
H 14.1520000   16.6550000   26.5390000  
H 15.5550000   16.9870000   27.8210000  
H 17.2280000   17.0190000   23.7550000  
H 14.1420000   17.1700000   19.7210000  
H 11.2320000   16.6340000   20.8980000  
C 16.1110000   17.2070000   21.1030000  
C 17.0750000   16.2520000   20.9340000  
C 18.0720000   16.3980000   20.0060000  
C 18.2170000   17.4870000   19.0850000  
C 17.2400000   18.4980000   19.2780000  
C 16.2480000   18.3670000   20.2870000  
C 17.2990000   14.9980000   21.5990000  
C 18.4110000   14.4440000   21.0500000  
N 18.8950000   15.2690000   20.0440000  
O 18.5380000   12.4820000   22.4280000  
C 19.0710000   13.1330000   21.3750000  
O 19.9620000   12.6780000   20.7110000  
O 17.3480000   19.6550000   18.5560000  
O 15.3360000   19.3340000   20.4380000  
H 16.8040000   14.5230000   22.4630000  
H 18.0420000   13.1930000   22.7900000  
H 19.7960000   15.1420000   19.5630000  
H 17.5740000   19.4520000   17.6040000  
H 15.7280000   20.2570000   20.4580000  
C 19.4590000   17.6760000   18.2540000  
C 19.8480000   16.6730000   17.3380000  
C 20.9510000   16.7900000   16.5520000  
C 21.7140000   17.9630000   16.5500000  
C 21.4990000   18.8830000   17.5130000  
C 20.3650000   18.7800000   18.3370000  
C 19.1630000   15.4990000   16.9150000  
C 19.8380000   15.0530000   15.7590000  
N 20.8960000   15.8800000   15.5450000  
O 18.1560000   13.4430000   15.1140000  
C 19.3720000   13.9000000   14.8740000  
O 19.8420000   13.5280000   13.8860000  
O 22.3300000   19.9650000   17.6240000  
O 20.1230000   19.7170000   19.3160000  
H 18.3070000   15.0680000   17.3640000  
H 17.8830000   13.8890000   15.9500000  
H 21.4490000   15.9830000   14.6650000  
H 21.9150000   20.6760000   18.1510000  
H 19.1760000   19.6570000   19.5070000  
H 22.4930000   18.0950000   15.7630000  
