78
000 
C 10.5730000   15.8720000   26.9630000  
C 10.6940000   16.8580000   27.9290000  
C 11.6450000   17.8460000   27.7480000  
C 12.3590000   17.8670000   26.6230000  
C 12.3590000   16.8710000   25.6090000  
C 11.3840000   15.8640000   25.7890000  
C 12.0560000   19.0060000   28.5660000  
C 13.0640000   19.6530000   27.8620000  
N 13.2200000   18.9650000   26.6290000  
O 13.8370000   21.2750000   29.4310000  
C 13.9850000   20.7590000   28.2100000  
O 14.8180000   21.1780000   27.4690000  
O 11.1810000   14.9480000   24.7690000  
O  9.6930000   14.8070000   27.0830000  
H 10.0730000   16.8040000   28.7820000  
H 11.7300000   19.2660000   29.5290000  
H 13.1460000   20.7040000   29.8170000  
H 13.8530000   19.2040000   25.8360000  
H 11.9600000   14.8370000   24.2830000  
H 10.0090000   14.1010000   26.5050000  
C 13.3490000   16.8500000   24.4980000  
C 14.1170000   15.6820000   24.2770000  
C 15.0780000   15.6960000   23.3160000  
C 15.4610000   16.8280000   22.6000000  
C 14.6710000   18.0180000   22.7820000  
C 13.5660000   18.0140000   23.6430000  
C 14.3130000   14.4500000   25.0820000  
C 15.4320000   13.8640000   24.4920000  
N 15.7800000   14.5560000   23.3000000  
O 15.5170000   11.8380000   25.8430000  
C 16.0540000   12.5740000   24.8510000  
O 16.9410000   12.0100000   24.1840000  
O 15.0490000   19.2160000   22.1300000  
O 12.7710000   19.1300000   23.7190000  
H 13.9850000   14.2400000   26.0890000  
H 14.9090000   12.4720000   26.3320000  
H 16.3450000   14.2500000   22.5010000  
H 15.8880000   19.1400000   21.7320000  
H 12.1120000   19.0180000   24.4700000  
C 16.5670000   16.8280000   21.5910000  
C 16.5590000   16.0290000   20.4620000  
C 17.5690000   16.0890000   19.5700000  
C 18.6660000   16.9450000   19.6980000  
C 18.7700000   17.7160000   20.8700000  
C 17.7520000   17.6450000   21.8590000  
C 15.5660000   15.0450000   20.0630000  
C 16.0610000   14.5490000   18.8910000  
N 17.2940000   15.1790000   18.5560000  
O 14.2170000   13.1330000   18.4010000  
C 15.4630000   13.5260000   17.9510000  
O 15.9480000   13.1140000   16.9180000  
O 19.8260000   18.5790000   21.0530000  
O 17.8050000   18.4570000   22.9400000  
H 14.6740000   14.7810000   20.5830000  
H 14.2520000   13.6670000   19.2210000  
H 17.9210000   15.0640000   17.7310000  
H 20.3100000   18.7130000   20.1760000  
H 18.6040000   19.0240000   22.8830000  
C 19.6720000   16.9750000   18.6200000  
C 19.3230000   17.4020000   17.3100000  
C 20.1640000   17.3150000   16.2770000  
C 21.3920000   16.7060000   16.3910000  
C 21.8760000   16.5220000   17.6830000  
C 21.0340000   16.5240000   18.7960000  
C 18.0710000   18.0090000   16.7110000  
C 18.2190000   18.1730000   15.3470000  
N 19.5300000   17.7750000   15.1110000  
O 16.3730000   19.4740000   14.9680000  
C 17.2910000   18.7640000   14.3860000  
O 17.3160000   18.6940000   13.1560000  
O 23.1790000   16.1700000   17.6480000  
O 21.4460000   16.1990000   20.0170000  
H 17.1850000   18.2970000   17.2260000  
H 16.5990000   19.5760000   15.9170000  
H 19.9540000   17.7660000   14.2230000  
H 23.4170000   16.1580000   18.5750000  
H 20.7400000   16.3740000   20.6450000  
H 22.0380000   16.5850000   15.5310000  
