78
000 
C 10.4060000   19.8260000   26.3050000  
C  9.9870000   18.7770000   27.0980000  
C 10.5990000   17.4880000   26.8940000  
C 11.5550000   17.3950000   25.8760000  
C 12.0650000   18.4560000   25.0840000  
C 11.3810000   19.7300000   25.2780000  
C 10.5120000   16.3110000   27.6460000  
C 11.5410000   15.5600000   27.1230000  
N 12.2030000   16.1580000   26.0160000  
O 11.2530000   13.8350000   28.8120000  
C 11.8780000   14.2410000   27.6880000  
O 12.7770000   13.5510000   27.2500000  
O 11.8250000   20.8860000   24.5470000  
O  9.9730000   21.0730000   26.4830000  
H  9.1500000   18.9240000   27.8120000  
H  9.8590000   16.0380000   28.3790000  
H 10.8820000   14.6990000   28.9930000  
H 13.0750000   15.8220000   25.5730000  
H 12.4810000   20.5250000   23.8990000  
H 10.2750000   21.5580000   25.6900000  
C 13.3490000   18.2220000   24.3020000  
C 13.3130000   17.3290000   23.2170000  
C 14.4210000   17.0540000   22.4960000  
C 15.6740000   17.6270000   22.7490000  
C 15.6700000   18.7000000   23.7370000  
C 14.5040000   18.9360000   24.5360000  
C 12.2950000   16.5290000   22.5760000  
C 12.8500000   15.8330000   21.5050000  
N 14.1860000   16.1580000   21.4960000  
O 10.9250000   14.5900000   20.7100000  
C 12.2000000   14.9310000   20.5690000  
O 12.8720000   14.4800000   19.6810000  
O 16.8050000   19.4440000   23.9150000  
O 14.5680000   19.9470000   25.4820000  
H 11.2210000   16.5990000   22.7770000  
H 10.6330000   14.9490000   21.4990000  
H 14.8310000   15.7440000   20.8480000  
H 17.5720000   18.9500000   23.4930000  
H 15.3910000   20.4360000   25.5040000  
C 16.8130000   17.1900000   21.9550000  
C 16.9370000   17.3790000   20.5880000  
C 17.8290000   16.7060000   19.8640000  
C 18.7340000   15.7390000   20.3640000  
C 18.5910000   15.4690000   21.7520000  
C 17.6620000   16.1270000   22.5280000  
C 16.2050000   18.1700000   19.6800000  
C 16.7130000   17.9150000   18.4180000  
N 17.7830000   17.0390000   18.5380000  
O 15.1240000   19.2640000   17.1780000  
C 16.2340000   18.4490000   17.1590000  
O 16.8000000   18.0880000   16.1210000  
O 19.4380000   14.5620000   22.3370000  
O 17.6640000   15.9430000   23.8570000  
H 15.4120000   18.7810000   19.9350000  
H 14.7470000   19.2590000   18.0890000  
H 18.2710000   16.5850000   17.7280000  
H 20.2960000   14.2930000   21.7870000  
H 18.0550000   15.0260000   24.0320000  
C 19.6970000   14.9730000   19.5470000  
C 20.6840000   15.6890000   18.8250000  
C 21.7180000   15.0810000   18.1470000  
C 21.8360000   13.7050000   18.0720000  
C 20.7970000   12.9340000   18.6140000  
C 19.7530000   13.5750000   19.3950000  
C 20.8530000   17.0520000   18.6810000  
C 22.0020000   17.2840000   17.8890000  
N 22.4690000   16.0250000   17.4820000  
O 22.1800000   19.6240000   17.9900000  
C 22.6840000   18.4930000   17.5040000  
O 23.6810000   18.4480000   16.8230000  
O 20.8170000   11.5320000   18.5480000  
O 18.7700000   12.8410000   19.8550000  
H 20.2760000   17.8210000   19.1520000  
H 21.6710000   19.0390000   18.5980000  
H 23.1040000   15.7830000   16.7700000  
H 20.2400000   11.2190000   19.2890000  
H 18.1570000   13.3860000   20.3740000  
H 22.5620000   13.2360000   17.3990000  
