78
000 
C 19.6260000   16.4930000   28.2600000  
C 19.8650000   15.2120000   28.7110000  
C 19.4810000   14.1320000   27.8800000  
C 18.9200000   14.4130000   26.6540000  
C 18.7120000   15.7250000   26.1320000  
C 19.0640000   16.7860000   26.9690000  
C 19.3460000   12.7190000   28.0980000  
C 18.7940000   12.2600000   26.9150000  
N 18.5570000   13.3270000   26.0300000  
O 18.3280000    9.8930000   27.4560000  
C 18.3440000   10.8740000   26.4910000  
O 17.9850000   10.6250000   25.3730000  
O 18.9050000   18.0600000   26.5300000  
O 20.0500000   17.5310000   29.0770000  
H 20.2580000   15.0190000   29.7500000  
H 19.8290000   12.0830000   28.8540000  
H 18.6470000   10.3500000   28.2690000  
H 18.2190000   13.1750000   25.0900000  
H 18.7270000   17.9290000   25.5360000  
H 20.0200000   18.3290000   28.5200000  
C 18.0350000   15.9010000   24.8120000  
C 16.7590000   16.5090000   24.8100000  
C 16.1350000   16.7240000   23.6130000  
C 16.7120000   16.4420000   22.3030000  
C 17.9920000   15.9140000   22.3200000  
C 18.6220000   15.6670000   23.5370000  
C 15.8900000   17.0350000   25.8460000  
C 14.8590000   17.6920000   25.1560000  
N 15.0000000   17.5040000   23.7600000  
O 13.8210000   18.5740000   27.0910000  
C 13.9030000   18.6460000   25.7430000  
O 13.2810000   19.4420000   25.0890000  
O 18.5880000   15.4500000   21.1660000  
O 19.7750000   14.9810000   23.4840000  
H 16.1450000   17.1260000   26.8760000  
H 14.4860000   17.9050000   27.3590000  
H 14.4130000   17.8200000   23.0220000  
H 17.8760000   15.4890000   20.5170000  
H 19.9890000   14.8640000   22.5300000  
C 15.8910000   16.7680000   21.0870000  
C 15.4350000   18.0830000   20.8190000  
C 14.5950000   18.2920000   19.8650000  
C 14.2300000   17.3170000   18.9280000  
C 14.5730000   15.9570000   19.2050000  
C 15.4850000   15.7210000   20.2230000  
C 15.4690000   19.2970000   21.6100000  
C 14.6330000   20.2150000   20.9630000  
N 14.2510000   19.6600000   19.7480000  
O 14.8710000   21.9290000   22.6660000  
C 14.2910000   21.5580000   21.4610000  
O 13.5760000   22.3390000   20.8720000  
O 14.0920000   14.9230000   18.4240000  
O 15.9640000   14.4620000   20.5400000  
H 16.0840000   19.5240000   22.4290000  
H 15.3410000   21.1950000   23.0470000  
H 13.6400000   20.0970000   19.0640000  
H 13.6830000   15.3440000   17.6120000  
H 15.3970000   13.7550000   20.0740000  
C 13.3570000   17.6700000   17.7480000  
C 13.8630000   17.5190000   16.4680000  
C 13.1620000   17.8400000   15.3870000  
C 11.8680000   18.4110000   15.5260000  
C 11.2630000   18.4630000   16.7740000  
C 11.9910000   18.1240000   17.9020000  
C 15.1110000   16.9790000   15.9940000  
C 15.0950000   17.0710000   14.5640000  
N 13.9070000   17.7620000   14.2180000  
O 17.1920000   16.1310000   14.1820000  
C 16.1630000   16.7440000   13.6100000  
O 16.0300000   17.0480000   12.4230000  
O  9.9530000   18.9070000   16.9520000  
O 11.3970000   18.1810000   19.1310000  
H 15.9700000   16.8140000   16.5920000  
H 16.8210000   16.0550000   15.0370000  
H 13.7540000   18.2460000   13.3370000  
H  9.9600000   18.9950000   17.9360000  
H 11.9740000   18.2050000   19.8400000  
H 11.3490000   18.6840000   14.6640000  
