78
000 
C 10.0530000   13.6680000   19.0840000  
C  9.7880000   13.9680000   17.7470000  
C 10.4400000   15.0990000   17.1820000  
C 11.4860000   15.6210000   17.8670000  
C 11.8150000   15.3860000   19.2330000  
C 11.0730000   14.4070000   19.8480000  
C 10.5170000   15.6120000   15.8360000  
C 11.5680000   16.5840000   15.8070000  
N 12.1720000   16.5920000   17.0760000  
O 11.5400000   17.1160000   13.4800000  
C 12.1020000   17.3890000   14.6790000  
O 13.1340000   18.0600000   14.6920000  
O 11.2010000   14.0660000   21.1950000  
O  9.5100000   12.5580000   19.6480000  
H  9.0480000   13.3690000   17.1750000  
H  9.8850000   15.3110000   14.9880000  
H 10.7680000   16.5810000   13.7260000  
H 12.9190000   17.1950000   17.3950000  
H 11.3400000   14.8870000   21.7110000  
H  9.8480000   12.5630000   20.5650000  
C 13.0630000   16.0080000   19.8160000  
C 13.2040000   17.2980000   20.3260000  
C 14.3500000   17.6610000   21.0090000  
C 15.4740000   16.8430000   21.1860000  
C 15.3760000   15.6310000   20.4460000  
C 14.2140000   15.2420000   19.8280000  
C 12.3210000   18.5070000   20.5100000  
C 12.9770000   19.3440000   21.3350000  
N 14.2090000   18.8650000   21.6420000  
O 11.4020000   21.1160000   21.3810000  
C 12.4820000   20.5760000   21.9660000  
O 13.0670000   21.2890000   22.7670000  
O 16.4570000   14.7490000   20.4300000  
O 14.1160000   13.9610000   19.3160000  
H 11.2560000   18.6520000   20.2860000  
H 11.2090000   20.5950000   20.5660000  
H 14.8190000   19.2250000   22.3450000  
H 17.2710000   15.1760000   20.8690000  
H 13.3190000   13.9810000   18.7610000  
C 16.5930000   17.1950000   22.0890000  
C 16.7550000   16.6230000   23.3610000  
C 17.7570000   16.9690000   24.2130000  
C 18.6440000   18.0290000   24.0180000  
C 18.5040000   18.6840000   22.7650000  
C 17.5180000   18.3030000   21.8260000  
C 16.0180000   15.6410000   24.0530000  
C 16.6690000   15.3600000   25.2820000  
N 17.7500000   16.2930000   25.3900000  
O 15.5880000   13.3090000   25.6540000  
C 16.3740000   14.2210000   26.1930000  
O 16.9110000   14.0240000   27.2760000  
O 19.3130000   19.7850000   22.5320000  
O 17.4950000   18.9320000   20.5840000  
H 15.3800000   14.9160000   23.5980000  
H 15.4030000   13.7140000   24.7970000  
H 18.4790000   16.2290000   26.1420000  
H 20.1130000   19.5100000   22.9330000  
H 17.8420000   19.8950000   20.6110000  
C 19.7960000   18.2570000   24.9160000  
C 20.7710000   17.2280000   25.1140000  
C 21.9340000   17.4580000   25.8640000  
C 22.1440000   18.6870000   26.5200000  
C 21.1690000   19.7240000   26.4500000  
C 20.0770000   19.5120000   25.5920000  
C 21.0250000   16.0070000   24.4080000  
C 22.2250000   15.4710000   24.8660000  
N 22.7630000   16.3380000   25.8050000  
O 22.0890000   13.4690000   23.7020000  
C 22.8030000   14.2080000   24.5530000  
O 23.8660000   13.8910000   24.9990000  
O 21.2840000   20.8440000   27.2250000  
O 19.0470000   20.4430000   25.5680000  
H 20.3980000   15.6510000   23.5740000  
H 21.3040000   13.9610000   23.5630000  
H 23.5300000   16.0750000   26.4300000  
H 20.5480000   21.4850000   27.0880000  
H 18.5340000   20.2700000   24.8080000  
H 23.0240000   18.9200000   27.1180000  
