78
000 
C 21.3040000   15.2480000   17.1930000  
C 20.9750000   14.1110000   16.3880000  
C 19.9060000   13.3290000   16.7250000  
C 19.1330000   13.6830000   17.7720000  
C 19.3060000   14.8110000   18.5900000  
C 20.4820000   15.5710000   18.3090000  
C 19.4340000   12.0480000   16.1700000  
C 18.2280000   11.7740000   16.8200000  
N 18.0170000   12.8240000   17.8390000  
O 17.8000000    9.6580000   15.7440000  
C 17.5260000   10.5310000   16.7620000  
O 16.7260000   10.2990000   17.6450000  
O 21.0230000   16.4790000   19.2230000  
O 22.4830000   15.8840000   17.0260000  
H 21.5240000   13.7890000   15.5480000  
H 20.0180000   11.3830000   15.5120000  
H 18.3950000   10.2050000   15.1470000  
H 17.3580000   12.8330000   18.5590000  
H 20.4560000   16.3730000   20.0290000  
H 22.6690000   16.4340000   17.7990000  
C 18.2970000   15.2480000   19.6190000  
C 17.7140000   14.4010000   20.6160000  
C 16.6950000   14.8400000   21.4170000  
C 16.1500000   16.1280000   21.4220000  
C 16.7320000   16.9920000   20.4310000  
C 17.7450000   16.5410000   19.5980000  
C 17.9970000   13.0870000   21.1310000  
C 17.1270000   12.8350000   22.2620000  
N 16.2990000   13.9590000   22.3990000  
O 18.0310000   10.7380000   22.7000000  
C 17.0720000   11.5940000   23.0260000  
O 16.2830000   11.3470000   23.8920000  
O 16.3990000   18.2980000   20.3630000  
O 18.2060000   17.4720000   18.7170000  
H 18.6840000   12.3430000   20.6650000  
H 18.6360000   11.2030000   22.1010000  
H 15.6930000   14.1910000   23.1740000  
H 15.6620000   18.5780000   20.9260000  
H 18.6620000   16.9650000   18.0600000  
C 15.1800000   16.7740000   22.4210000  
C 15.6540000   17.5970000   23.4540000  
C 14.7960000   18.4200000   24.1440000  
C 13.4190000   18.3620000   24.0650000  
C 12.8840000   17.4370000   23.1340000  
C 13.7750000   16.6500000   22.3100000  
C 17.0270000   17.8890000   23.8570000  
C 16.8490000   18.8790000   24.8420000  
N 15.4970000   19.1870000   25.0310000  
O 19.0580000   18.9880000   25.4760000  
C 17.9230000   19.5990000   25.5570000  
O 17.6960000   20.5480000   26.2430000  
O 11.5050000   17.2780000   22.9510000  
O 13.1880000   15.9850000   21.2760000  
H 17.9140000   17.4620000   23.5600000  
H 18.8520000   18.2530000   24.9300000  
H 15.1340000   19.7950000   25.8190000  
H 11.0780000   17.8750000   23.6140000  
H 12.1950000   16.0910000   21.3140000  
C 12.3980000   19.1550000   24.8560000  
C 12.2610000   20.5130000   24.7800000  
C 11.3260000   21.2100000   25.5700000  
C 10.4790000   20.6040000   26.5140000  
C 10.6720000   19.2280000   26.6520000  
C 11.6880000   18.5320000   25.9060000  
C 12.9210000   21.4960000   23.9140000  
C 12.2930000   22.7470000   24.1920000  
N 11.3740000   22.6010000   25.2530000  
O 13.4680000   24.0140000   22.5270000  
C 12.5870000   24.0320000   23.5700000  
O 12.0440000   25.0060000   23.9970000  
O  9.8450000   18.5320000   27.4930000  
O 11.6410000   17.1300000   26.0380000  
H 13.8260000   21.4560000   23.3180000  
H 13.7670000   23.0610000   22.4690000  
H 10.9620000   23.2660000   25.8550000  
H  9.8040000   17.6330000   27.0880000  
H 12.5320000   16.7420000   25.7390000  
H  9.7220000   21.0700000   27.1280000  
