78
000 
C  8.7120000   19.2880000   21.4840000  
C  8.2960000   19.1960000   22.7970000  
C  9.2020000   18.6840000   23.6830000  
C 10.4140000   18.1990000   23.2850000  
C 10.8680000   18.1980000   21.9690000  
C 10.0330000   18.7670000   21.0470000  
C  9.1420000   18.6250000   25.1440000  
C 10.3800000   17.9700000   25.5350000  
N 11.1820000   17.7650000   24.3720000  
O  9.8620000   17.9310000   27.8680000  
C 10.8360000   17.7950000   26.9550000  
O 11.9630000   17.5060000   27.2670000  
O 10.4200000   18.6740000   19.7730000  
O  7.8620000   19.8110000   20.5740000  
H  7.3580000   19.5400000   23.1750000  
H  8.2830000   18.9630000   25.7700000  
H  9.0220000   18.1010000   27.4430000  
H 12.1520000   17.5030000   24.3530000  
H 11.1230000   18.0250000   19.6210000  
H  8.3580000   19.8790000   19.6900000  
C 12.2540000   17.8250000   21.6180000  
C 12.7660000   16.5260000   21.8650000  
C 14.1160000   16.2580000   21.7870000  
C 15.0600000   17.2120000   21.4450000  
C 14.5980000   18.4960000   21.1430000  
C 13.2030000   18.8320000   21.2800000  
C 12.1720000   15.3240000   22.3520000  
C 13.2380000   14.4240000   22.4630000  
N 14.4950000   15.0320000   22.1250000  
O 11.8100000   12.6830000   23.3000000  
C 13.1230000   13.0630000   23.0470000  
O 14.0700000   12.3010000   23.2400000  
O 15.5500000   19.4090000   20.8310000  
O 12.8300000   20.1200000   21.0720000  
H 11.1130000   15.1980000   22.5830000  
H 11.2420000   13.4790000   22.9820000  
H 15.4260000   14.5680000   21.9700000  
H 16.3340000   18.8960000   20.6250000  
H 13.5860000   20.7170000   21.0530000  
C 16.5280000   16.8970000   21.4430000  
C 17.2680000   16.7960000   20.2650000  
C 18.5130000   16.2720000   20.2450000  
C 19.1190000   15.7930000   21.4170000  
C 18.4170000   15.9790000   22.6460000  
C 17.1220000   16.5670000   22.6420000  
C 16.9170000   17.0300000   18.9350000  
C 17.9650000   16.5030000   18.0900000  
N 19.0320000   16.1480000   18.9350000  
O 17.0060000   17.0690000   16.0360000  
C 18.0870000   16.5120000   16.6190000  
O 19.0480000   16.1170000   16.0260000  
O 19.1520000   15.6060000   23.7430000  
O 16.4040000   16.7330000   23.8040000  
H 16.0270000   17.5380000   18.5530000  
H 16.3390000   17.0520000   16.7320000  
H 19.9570000   15.9550000   18.6320000  
H 19.9850000   15.6040000   23.3470000  
H 16.9890000   16.5150000   24.5250000  
C 20.4960000   15.2530000   21.3990000  
C 21.5910000   16.0400000   21.8450000  
C 22.8220000   15.4360000   21.8710000  
C 23.0470000   14.1360000   21.4830000  
C 22.0110000   13.3470000   21.0710000  
C 20.7180000   13.8900000   20.9390000  
C 21.7550000   17.4030000   22.2300000  
C 23.1100000   17.6140000   22.5260000  
N 23.7370000   16.3700000   22.2660000  
O 22.8580000   19.8280000   23.1000000  
C 23.7560000   18.9130000   22.8780000  
O 24.9420000   19.0360000   23.0500000  
O 22.2370000   12.0290000   20.8690000  
O 19.7580000   13.0890000   20.4520000  
H 20.9490000   18.1400000   22.4150000  
H 22.1660000   19.2160000   22.9320000  
H 24.7310000   16.1970000   22.3440000  
H 21.4470000   11.5470000   20.4780000  
H 18.8830000   13.6270000   20.4620000  
H 24.0550000   13.7470000   21.6370000  
