78
000 
C 10.8560000   14.9230000   27.0410000  
C 10.8650000   15.8640000   28.0770000  
C 11.8200000   16.9220000   28.0330000  
C 12.6390000   16.9940000   26.9350000  
C 12.5760000   16.1960000   25.8300000  
C 11.6520000   15.0820000   25.9040000  
C 12.0200000   18.0100000   28.8870000  
C 12.9670000   18.8370000   28.1870000  
N 13.3730000   18.1680000   27.0420000  
O 12.8950000   20.7190000   29.7890000  
C 13.5310000   20.1070000   28.7170000  
O 14.4080000   20.6570000   28.0970000  
O 11.3820000   14.2690000   24.8720000  
O  9.9260000   13.8820000   27.1090000  
H 10.2400000   15.6770000   28.9200000  
H 11.6770000   18.1870000   29.8560000  
H 12.1920000   20.2160000   30.1430000  
H 14.1810000   18.4620000   26.4020000  
H 11.6270000   14.7270000   24.0680000  
H 10.0870000   13.3020000   26.3190000  
C 13.3790000   16.4030000   24.5990000  
C 14.7530000   16.1700000   24.6400000  
C 15.5420000   16.4630000   23.5370000  
C 15.0200000   16.9620000   22.2650000  
C 13.6090000   17.1560000   22.2160000  
C 12.8230000   16.8220000   23.3760000  
C 15.7270000   15.7950000   25.6370000  
C 17.0000000   15.7540000   25.0890000  
N 16.9030000   16.1990000   23.7480000  
O 18.1500000   15.3790000   27.0130000  
C 18.2890000   15.3530000   25.6930000  
O 19.3950000   15.1900000   25.1710000  
O 13.0540000   17.6510000   21.0680000  
O 11.4680000   17.1100000   23.3290000  
H 15.5160000   15.5220000   26.6650000  
H 17.3980000   15.9290000   27.0780000  
H 17.5360000   16.1400000   23.0010000  
H 13.7260000   17.8950000   20.4090000  
H 11.3160000   17.6820000   22.5190000  
C 15.8610000   17.1270000   21.0370000  
C 16.5960000   16.0920000   20.5220000  
C 17.4820000   16.3090000   19.4490000  
C 17.7390000   17.5730000   18.8550000  
C 16.9670000   18.6060000   19.3790000  
C 15.9780000   18.4090000   20.4100000  
C 16.8580000   14.7610000   20.9740000  
C 17.9280000   14.2150000   20.2580000  
N 18.3070000   15.1900000   19.2570000  
O 17.7410000   12.0100000   21.2130000  
C 18.4770000   12.8850000   20.4290000  
O 19.3960000   12.5110000   19.7710000  
O 17.0290000   19.8340000   18.8720000  
O 15.2790000   19.4680000   20.8810000  
H 16.3920000   14.2160000   21.7790000  
H 16.9510000   12.5360000   21.4260000  
H 19.1490000   15.2220000   18.7430000  
H 17.4630000   19.6350000   18.0610000  
H 14.8960000   20.0120000   20.1450000  
C 18.7990000   17.7940000   17.8930000  
C 18.4790000   17.4060000   16.5840000  
C 19.4520000   17.5480000   15.6280000  
C 20.6780000   18.2100000   15.8160000  
C 20.8720000   18.7420000   17.0240000  
C 19.9540000   18.5090000   18.1080000  
C 17.3760000   16.6950000   16.0120000  
C 17.7910000   16.4040000   14.7590000  
N 19.0800000   16.8270000   14.5080000  
O 15.7670000   15.4260000   14.2330000  
C 16.9700000   15.6880000   13.7800000  
O 17.3160000   15.5930000   12.6530000  
O 21.9440000   19.6110000   17.1670000  
O 20.1100000   19.3010000   19.2710000  
H 16.3030000   16.6230000   16.3730000  
H 15.8440000   15.3360000   15.2380000  
H 19.5930000   16.7460000   13.6240000  
H 21.9020000   19.8280000   18.1020000  
H 19.2480000   19.3760000   19.6760000  
H 21.3820000   18.3900000   15.0020000  
