78
000 
C 17.1310000   11.6260000   16.8120000  
C 17.6540000   12.1540000   15.6260000  
C 18.0210000   13.4870000   15.5530000  
C 17.9230000   14.2650000   16.6510000  
C 17.4480000   13.7780000   17.9120000  
C 17.0810000   12.3610000   17.9870000  
C 18.2830000   14.3550000   14.4070000  
C 18.2300000   15.6380000   14.9130000  
N 18.0600000   15.6160000   16.3660000  
O 18.6550000   16.5820000   12.8200000  
C 18.3840000   16.8680000   14.1160000  
O 18.2730000   18.0260000   14.4890000  
O 16.7840000   11.8030000   19.1760000  
O 16.6660000   10.3520000   16.8000000  
H 17.6550000   11.6340000   14.7090000  
H 18.6000000   14.0470000   13.4080000  
H 18.7910000   15.6770000   12.9580000  
H 17.8920000   16.3980000   16.9990000  
H 17.1200000   12.3540000   19.8830000  
H 16.2320000   10.1000000   17.6210000  
C 17.2460000   14.7240000   19.0180000  
C 15.9150000   15.0780000   19.3310000  
C 15.6460000   15.9270000   20.3280000  
C 16.6280000   16.5750000   21.1570000  
C 17.9380000   16.0820000   20.9510000  
C 18.2540000   15.3110000   19.7890000  
C 14.6390000   14.7140000   18.7110000  
C 13.6260000   15.3210000   19.5290000  
N 14.3200000   16.1490000   20.4730000  
O 11.6440000   14.6030000   18.3810000  
C 12.1120000   15.2820000   19.4220000  
O 11.3370000   15.8400000   20.1900000  
O 18.9160000   16.6900000   21.7010000  
O 19.6550000   15.0480000   19.5180000  
H 14.4450000   14.0710000   17.8500000  
H 12.4230000   14.4040000   17.8450000  
H 13.8480000   16.5070000   21.3140000  
H 18.4230000   17.4370000   22.0620000  
H 19.7160000   14.4050000   18.7440000  
C 16.1670000   17.4590000   22.2810000  
C 16.1660000   17.0160000   23.6370000  
C 15.6150000   17.7460000   24.6610000  
C 14.9670000   18.9530000   24.4150000  
C 14.9940000   19.4800000   23.0770000  
C 15.5420000   18.6740000   22.0790000  
C 16.6330000   15.7800000   24.2290000  
C 16.3980000   15.8130000   25.6250000  
N 15.6670000   17.0070000   25.8910000  
O 17.5750000   13.8040000   26.0330000  
C 16.8610000   14.8190000   26.6170000  
O 16.5040000   14.6760000   27.7770000  
O 14.4990000   20.7560000   22.7350000  
O 15.6080000   19.1990000   20.7490000  
H 17.1990000   15.0310000   23.6580000  
H 17.7670000   14.1490000   25.1190000  
H 15.3030000   17.2960000   26.7480000  
H 14.4170000   21.2630000   23.5640000  
H 15.2340000   20.0960000   20.8330000  
C 14.1520000   19.5560000   25.5230000  
C 14.7410000   19.8600000   26.8200000  
C 14.0010000   20.3890000   27.8170000  
C 12.6030000   20.5550000   27.7470000  
C 12.0020000   20.2120000   26.5300000  
C 12.7600000   19.6720000   25.4920000  
C 16.1240000   19.8600000   27.2050000  
C 16.1590000   20.3280000   28.5000000  
N 14.8520000   20.8320000   28.8240000  
O 18.4770000   20.0510000   28.9860000  
C 17.3040000   20.4810000   29.4410000  
O 17.1500000   21.0600000   30.4780000  
O 10.6940000   20.4460000   26.4260000  
O 12.1290000   19.2210000   24.3600000  
H 17.0540000   19.3580000   26.7020000  
H 18.2840000   19.6390000   28.1580000  
H 14.6720000   21.1660000   29.7610000  
H 10.4230000   19.7010000   25.8110000  
H 12.6470000   19.1630000   23.5630000  
H 12.0260000   21.0010000   28.6380000  
