78
000 
C 18.2860000   12.5620000   16.0150000  
C 19.4170000   11.7960000   16.3940000  
C 19.7250000   11.8080000   17.7700000  
C 18.9020000   12.4700000   18.6140000  
C 17.8680000   13.3770000   18.3120000  
C 17.4890000   13.3430000   16.9210000  
C 20.7450000   11.0840000   18.4650000  
C 20.5870000   11.4740000   19.7640000  
N 19.4990000   12.4040000   19.8140000  
O 22.6110000   10.4470000   20.6490000  
C 21.5690000   11.2590000   20.8880000  
O 21.4900000   11.8330000   21.9710000  
O 16.3400000   14.0610000   16.5590000  
O 17.9610000   12.7110000   14.6230000  
H 19.9440000   11.1570000   15.7270000  
H 21.4700000   10.5270000   17.9630000  
H 22.2620000    9.9320000   19.8290000  
H 19.4260000   13.0370000   20.5800000  
H 15.9140000   14.4830000   17.2780000  
H 17.0840000   13.1270000   14.4310000  
C 17.2340000   14.1820000   19.3740000  
C 18.0200000   15.1570000   20.0280000  
C 17.3620000   15.9420000   20.8900000  
C 16.0510000   15.8920000   21.4230000  
C 15.3090000   14.7960000   20.8680000  
C 15.9000000   13.9940000   19.8370000  
C 19.3430000   15.7210000   19.8480000  
C 19.4210000   16.8300000   20.7020000  
N 18.2070000   16.8870000   21.3600000  
O 21.6970000   17.5290000   20.1230000  
C 20.5400000   17.7940000   20.8260000  
O 20.5220000   18.5600000   21.7440000  
O 14.1070000   14.4930000   21.4810000  
O 15.0660000   13.0260000   19.3730000  
H 19.9660000   15.4990000   19.0350000  
H 21.4400000   16.8340000   19.5080000  
H 17.9010000   17.5760000   22.0250000  
H 14.0220000   15.1240000   22.1780000  
H 15.6220000   12.2950000   19.0120000  
C 15.4830000   16.9490000   22.3540000  
C 14.6050000   18.0250000   21.9530000  
C 14.1620000   18.9390000   22.8610000  
C 14.5470000   19.0420000   24.2010000  
C 15.3880000   17.9890000   24.6100000  
C 15.8880000   16.9630000   23.7430000  
C 13.8320000   18.2420000   20.8140000  
C 12.9640000   19.3480000   21.0400000  
N 13.2940000   19.8130000   22.3210000  
O 12.1110000   19.5150000   18.7970000  
C 12.0280000   20.0350000   20.0430000  
O 11.1730000   20.8770000   20.3640000  
O 15.8170000   18.0880000   25.9320000  
O 16.6520000   16.0080000   24.3390000  
H 13.7370000   17.6370000   19.8930000  
H 12.8890000   18.9560000   18.7600000  
H 12.9600000   20.6740000   22.7550000  
H 15.3390000   18.8150000   26.4380000  
H 16.6370000   16.2200000   25.2560000  
C 13.9820000   20.1440000   25.0180000  
C 12.8750000   19.9520000   25.9190000  
C 12.3650000   20.9930000   26.6440000  
C 12.8900000   22.2830000   26.5280000  
C 13.9530000   22.4760000   25.6540000  
C 14.4820000   21.4300000   24.8580000  
C 12.0070000   18.8220000   26.2820000  
C 11.0080000   19.2790000   27.1280000  
N 11.2270000   20.6300000   27.4180000  
O  9.7910000   17.3580000   26.9940000  
C  9.8490000   18.5630000   27.5620000  
O  8.9250000   19.0270000   28.2330000  
O 14.5740000   23.7180000   25.7450000  
O 15.5730000   21.6430000   24.0300000  
H 12.0620000   17.8150000   25.7860000  
H 10.5840000   17.3800000   26.4160000  
H 10.6290000   21.3170000   27.9810000  
H 15.3610000   23.8020000   25.2170000  
H 15.5900000   20.9280000   23.3600000  
H 12.4370000   23.0690000   27.1370000  
