78
000 
C 14.1830000   16.4430000   29.1470000  
C 12.8630000   16.8550000   29.3600000  
C 12.0630000   17.0570000   28.1730000  
C 12.5780000   16.7790000   26.9330000  
C 13.8640000   16.4270000   26.6520000  
C 14.7140000   16.2930000   27.7930000  
C 10.7490000   17.6050000   27.9870000  
C 10.5360000   17.6020000   26.6360000  
N 11.7010000   17.1760000   25.9770000  
O  8.2780000   18.4820000   26.9120000  
C  9.2360000   17.9730000   26.0190000  
O  9.0760000   17.8800000   24.8320000  
O 16.0340000   16.0590000   27.6490000  
O 15.0270000   16.3310000   30.2420000  
H 12.5650000   17.1950000   30.4110000  
H  9.9760000   17.8260000   28.7550000  
H  8.7110000   18.2550000   27.7940000  
H 11.8190000   17.0490000   25.0010000  
H 16.2600000   16.1820000   26.7320000  
H 15.7370000   15.6640000   30.1250000  
C 14.3910000   16.1870000   25.2480000  
C 14.4490000   17.1860000   24.2890000  
C 14.9310000   17.0340000   23.0310000  
C 15.5010000   15.8470000   22.6470000  
C 15.4820000   14.7590000   23.5760000  
C 14.9390000   14.9270000   24.8430000  
C 14.1390000   18.5910000   24.4740000  
C 14.4860000   19.2220000   23.2710000  
N 14.8200000   18.2170000   22.3230000  
O 13.9160000   21.5220000   23.8150000  
C 14.3720000   20.6550000   22.8680000  
O 14.7530000   21.0600000   21.7420000  
O 16.1220000   13.6040000   23.2210000  
O 14.8980000   13.8990000   25.7120000  
H 13.8170000   19.1100000   25.3520000  
H 13.6140000   20.8850000   24.5160000  
H 14.8220000   18.3290000   21.3170000  
H 15.7010000   13.3750000   22.2990000  
H 14.4330000   14.2580000   26.4690000  
C 16.1610000   15.7330000   21.3280000  
C 17.5350000   15.8890000   21.2880000  
C 18.1440000   16.2860000   20.1410000  
C 17.5150000   16.3750000   18.8810000  
C 16.1640000   16.0540000   18.9250000  
C 15.5300000   15.6640000   20.1190000  
C 18.5150000   15.9760000   22.3290000  
C 19.7470000   16.2260000   21.7470000  
N 19.5300000   16.4130000   20.3620000  
O 21.1000000   16.1400000   23.7400000  
C 21.0630000   16.3740000   22.4110000  
O 22.0920000   16.6440000   21.7780000  
O 15.4620000   16.2510000   17.7900000  
O 14.1690000   15.4860000   19.9950000  
H 18.3120000   15.8210000   23.4020000  
H 20.2150000   15.9120000   24.0440000  
H 20.1560000   16.9520000   19.7690000  
H 16.1810000   16.5180000   17.0960000  
H 14.0210000   15.7610000   19.1380000  
C 18.2840000   16.9910000   17.7020000  
C 18.2370000   16.3300000   16.4150000  
C 18.9190000   16.8780000   15.3210000  
C 19.6820000   18.0770000   15.4420000  
C 19.7250000   18.7500000   16.6770000  
C 19.0110000   18.1870000   17.7670000  
C 17.6210000   15.1260000   15.9130000  
C 18.1680000   14.9160000   14.6180000  
N 18.9920000   15.9560000   14.2640000  
O 17.0120000   12.8320000   14.2590000  
C 17.8790000   13.7860000   13.7140000  
O 18.3830000   13.7990000   12.6060000  
O 20.3740000   19.9600000   16.7300000  
O 19.0690000   18.8680000   18.9850000  
H 16.9070000   14.4290000   16.3290000  
H 16.6860000   13.1230000   15.0960000  
H 19.7210000   15.9440000   13.5550000  
H 20.2980000   20.3060000   17.6490000  
H 18.4850000   18.3430000   19.6420000  
H 20.1980000   18.5030000   14.5860000  
