78
000 
C 13.5190000   17.9740000   29.0030000  
C 14.3820000   17.2750000   29.8330000  
C 15.4450000   16.6010000   29.2430000  
C 15.6550000   16.5770000   27.8960000  
C 14.8850000   17.3460000   26.9910000  
C 13.8080000   18.0450000   27.6250000  
C 16.2540000   15.5560000   29.7810000  
C 16.9880000   15.0920000   28.7120000  
N 16.6520000   15.7240000   27.4940000  
O 18.0330000   13.6180000   30.1300000  
C 17.9670000   14.0060000   28.8470000  
O 18.7010000   13.4740000   28.0360000  
O 12.9260000   18.6580000   26.7940000  
O 12.4920000   18.6220000   29.5390000  
H 14.1070000   17.0800000   30.8690000  
H 16.3770000   15.2560000   30.8540000  
H 17.4720000   14.3000000   30.5060000  
H 16.8700000   15.3130000   26.6210000  
H 13.0750000   18.3870000   25.8230000  
H 12.0430000   19.2620000   28.9240000  
C 15.1410000   17.2020000   25.4870000  
C 14.1450000   16.7120000   24.6290000  
C 14.4540000   16.5400000   23.2670000  
C 15.6570000   16.8310000   22.6480000  
C 16.6870000   17.3190000   23.4910000  
C 16.4010000   17.4710000   24.8750000  
C 12.8010000   16.1330000   24.8040000  
C 12.3990000   15.6170000   23.5590000  
N 13.3920000   15.9200000   22.6160000  
O 10.2620000   14.9490000   24.1280000  
C 11.1260000   15.0480000   23.0980000  
O 10.8930000   14.6280000   21.9640000  
O 17.9190000   17.6410000   22.9920000  
O 17.3790000   18.1720000   25.5490000  
H 12.1430000   16.2500000   25.6600000  
H 10.8090000   15.2770000   24.8810000  
H 13.4180000   15.8690000   21.5980000  
H 17.8460000   17.7470000   22.0620000  
H 18.2010000   18.0800000   25.0760000  
C 15.8960000   16.7420000   21.1900000  
C 15.7940000   17.8710000   20.3750000  
C 15.9320000   17.7970000   19.0130000  
C 16.1920000   16.6060000   18.2830000  
C 16.2250000   15.4700000   19.1160000  
C 16.0920000   15.4720000   20.5240000  
C 15.5470000   19.2730000   20.7030000  
C 15.6790000   19.9580000   19.5090000  
N 15.8490000   19.0740000   18.4210000  
O 15.5620000   22.1550000   20.3440000  
C 15.5410000   21.4250000   19.2580000  
O 15.3830000   21.9080000   18.1770000  
O 16.3900000   14.2320000   18.5200000  
O 16.1770000   14.2500000   21.1640000  
H 15.5030000   19.6550000   21.6570000  
H 15.8830000   21.4910000   21.0060000  
H 15.8490000   19.2400000   17.4150000  
H 15.9810000   14.2580000   17.6560000  
H 16.5370000   13.5250000   20.5180000  
C 16.4630000   16.6180000   16.7810000  
C 17.6610000   16.0790000   16.2690000  
C 18.0190000   16.2280000   14.9450000  
C 17.3290000   17.0260000   14.0710000  
C 16.1430000   17.5090000   14.4900000  
C 15.6740000   17.2190000   15.8560000  
C 18.8380000   15.5940000   16.9550000  
C 19.7860000   15.3210000   16.0300000  
N 19.3080000   15.7090000   14.7840000  
O 21.4660000   14.3640000   17.5160000  
C 21.1740000   14.9460000   16.3010000  
O 22.0550000   15.0190000   15.4370000  
O 15.3700000   18.1010000   13.5850000  
O 14.4030000   17.6470000   16.2100000  
H 19.0550000   15.2830000   18.0030000  
H 20.6590000   14.2520000   18.0240000  
H 19.8020000   15.6420000   13.9130000  
H 14.4260000   18.1770000   13.8880000  
H 14.3760000   17.6400000   17.2230000  
H 17.7280000   17.2650000   13.0400000  
