78
000 
C 13.4360000   15.0410000   15.0600000  
C 12.3900000   16.0150000   14.8890000  
C 12.1270000   16.9510000   15.8080000  
C 12.8230000   16.9320000   16.9650000  
C 13.8240000   15.9710000   17.2890000  
C 14.2230000   15.0800000   16.2640000  
C 11.1350000   18.0480000   15.9230000  
C 11.2630000   18.5190000   17.2060000  
N 12.3660000   17.8530000   17.7810000  
O  9.6940000   20.3350000   16.9230000  
C 10.5380000   19.7110000   17.7810000  
O 10.7100000   20.2160000   18.8990000  
O 15.2770000   14.2660000   16.4640000  
O 13.7800000   14.1460000   14.0600000  
H 11.8170000   16.0660000   14.0090000  
H 10.5950000   18.4860000   15.0720000  
H  9.6770000   19.6920000   16.1600000  
H 12.7730000   18.0590000   18.6870000  
H 15.6900000   14.3840000   17.3600000  
H 14.5020000   13.6230000   14.4230000  
C 14.5050000   15.9850000   18.6220000  
C 13.7370000   15.6220000   19.7970000  
C 14.2230000   15.7720000   21.0290000  
C 15.5150000   16.3040000   21.3160000  
C 16.3270000   16.5750000   20.1660000  
C 15.7720000   16.4800000   18.8670000  
C 12.4110000   14.9940000   19.9880000  
C 12.3200000   14.7350000   21.3510000  
N 13.4310000   15.2670000   22.0520000  
O 10.1160000   13.8820000   21.2780000  
C 11.0640000   14.3640000   22.0560000  
O 10.9470000   14.4750000   23.2710000  
O 17.6240000   17.0570000   20.3810000  
O 16.4770000   16.8840000   17.7780000  
H 11.6070000   14.7690000   19.2830000  
H 10.4720000   13.7390000   20.3390000  
H 13.4620000   15.3050000   23.0580000  
H 17.6410000   17.3760000   21.2990000  
H 17.2980000   17.3780000   18.0080000  
C 16.0340000   16.3570000   22.6990000  
C 17.2320000   15.7370000   23.1190000  
C 17.7850000   16.0870000   24.3300000  
C 17.2310000   17.0140000   25.1990000  
C 15.9110000   17.4160000   24.9620000  
C 15.3060000   17.1210000   23.7100000  
C 18.1170000   14.8370000   22.4910000  
C 19.2200000   14.7250000   23.2780000  
N 19.0580000   15.5500000   24.4230000  
O 20.5830000   13.4300000   21.7820000  
C 20.5590000   14.1280000   22.9390000  
O 21.5460000   14.1800000   23.6340000  
O 15.2310000   18.0920000   25.9510000  
O 14.1060000   17.7470000   23.4880000  
H 18.0670000   14.3670000   21.5440000  
H 19.6590000   13.4250000   21.5770000  
H 19.7150000   15.6460000   25.1490000  
H 15.6650000   18.1250000   26.8060000  
H 13.7100000   18.0620000   24.3720000  
C 18.0440000   17.3510000   26.3800000  
C 19.3340000   18.0280000   26.3070000  
C 20.0190000   18.4160000   27.3540000  
C 19.5960000   18.0710000   28.6540000  
C 18.4270000   17.3030000   28.7500000  
C 17.6290000   16.9870000   27.6460000  
C 19.9820000   18.7190000   25.1780000  
C 21.0720000   19.3870000   25.6810000  
N 21.1070000   19.2170000   27.0380000  
O 21.6310000   20.1660000   23.5430000  
C 22.0040000   20.1610000   24.8500000  
O 22.9450000   20.7200000   25.2740000  
O 18.0420000   17.0100000   30.0200000  
O 16.4940000   16.3340000   27.9060000  
H 19.6210000   18.5480000   24.1900000  
H 20.7660000   19.6820000   23.4530000  
H 21.7420000   19.6360000   27.6740000  
H 17.2390000   16.4720000   29.9530000  
H 15.8950000   16.2230000   27.1010000  
H 20.0880000   18.3780000   29.5560000  
