78
000 
C  8.5320000   14.8660000   21.6280000  
C  7.8410000   15.7480000   20.7980000  
C  8.5720000   16.6870000   20.1170000  
C  9.9320000   16.8130000   20.3630000  
C 10.7200000   15.9410000   21.1050000  
C  9.9510000   14.8930000   21.7610000  
C  8.1890000   17.8460000   19.3850000  
C  9.2760000   18.7220000   19.3370000  
N 10.3660000   18.0490000   19.8640000  
O  8.2280000   20.4830000   18.2910000  
C  9.4260000   20.0570000   18.7760000  
O 10.4700000   20.6760000   18.7360000  
O 10.5760000   13.9630000   22.5810000  
O  7.8830000   14.0390000   22.3880000  
H  6.7370000   15.7390000   20.7560000  
H  7.2050000   18.1980000   19.1470000  
H  7.6820000   19.7250000   18.5070000  
H 11.3170000   18.4740000   19.8990000  
H 11.4920000   13.8830000   22.3620000  
H  8.5150000   13.5820000   22.9670000  
C 12.1660000   16.0260000   21.3100000  
C 12.8520000   17.1430000   21.8270000  
C 14.2190000   17.1730000   21.8870000  
C 15.1130000   16.2150000   21.3900000  
C 14.4160000   15.1010000   20.8360000  
C 13.0110000   15.0150000   20.8080000  
C 12.4520000   18.3680000   22.5120000  
C 13.6260000   19.0590000   22.8540000  
N 14.7050000   18.2830000   22.4650000  
O 12.6510000   20.8590000   24.0190000  
C 13.7890000   20.4500000   23.4330000  
O 14.7670000   21.1770000   23.4320000  
O 15.1190000   14.1410000   20.0920000  
O 12.5030000   13.9790000   20.0420000  
H 11.4070000   18.7040000   22.6790000  
H 12.1780000   19.9660000   23.9770000  
H 15.6780000   18.4310000   22.7510000  
H 16.0090000   14.5070000   19.9640000  
H 13.2200000   13.4520000   19.6420000  
C 16.6260000   16.3830000   21.4110000  
C 17.3960000   16.3660000   22.6000000  
C 18.7720000   16.5380000   22.5920000  
C 19.5490000   16.7740000   21.4640000  
C 18.8070000   16.8990000   20.2800000  
C 17.4040000   16.7090000   20.2580000  
C 17.0460000   16.2600000   24.0250000  
C 18.1940000   16.3760000   24.7400000  
N 19.2600000   16.5730000   23.8560000  
O 17.1600000   15.9870000   26.8160000  
C 18.3110000   16.1030000   26.1810000  
O 19.3990000   15.9500000   26.7170000  
O 19.4420000   17.1870000   19.1310000  
O 16.7180000   16.8520000   19.0960000  
H 16.0440000   15.9260000   24.4810000  
H 16.4240000   16.1990000   26.1600000  
H 20.1690000   16.8670000   24.1210000  
H 20.3330000   16.7590000   19.1600000  
H 17.2060000   17.5480000   18.6210000  
C 21.0320000   17.0110000   21.6500000  
C 21.8880000   16.0670000   22.2090000  
C 23.2380000   16.3490000   22.4640000  
C 23.8420000   17.5950000   22.1010000  
C 23.0080000   18.5870000   21.6760000  
C 21.6320000   18.3150000   21.4030000  
C 21.6260000   14.7000000   22.7410000  
C 22.8290000   14.2620000   23.1500000  
N 23.7840000   15.2730000   23.1240000  
O 22.1000000   12.0890000   23.8700000  
C 23.0730000   13.0050000   23.8280000  
O 24.1270000   12.6960000   24.3330000  
O 23.5000000   19.8450000   21.4490000  
O 20.8460000   19.2170000   20.6950000  
H 20.6880000   14.1530000   22.6640000  
H 21.5660000   12.2500000   23.0930000  
H 24.6760000   15.2550000   23.5790000  
H 22.9620000   20.1840000   20.6850000  
H 19.8800000   18.9130000   20.8000000  
H 24.9140000   17.7780000   22.3780000  
