78
000 
C 11.4640000   19.5790000   26.6400000  
C 11.2420000   18.9810000   27.8580000  
C 12.1150000   17.8710000   28.1690000  
C 12.9620000   17.3750000   27.2830000  
C 13.1020000   17.8700000   25.9740000  
C 12.4090000   19.0760000   25.7130000  
C 12.1800000   17.0230000   29.3490000  
C 13.0960000   16.0240000   29.0480000  
N 13.4840000   16.1390000   27.7710000  
O 12.9580000   14.9330000   31.2360000  
C 13.4220000   14.8740000   29.9210000  
O 14.0760000   13.9020000   29.6030000  
O 12.5650000   19.6660000   24.4740000  
O 10.7600000   20.7280000   26.3590000  
H 10.5350000   19.3900000   28.5710000  
H 11.7940000   17.2760000   30.3060000  
H 12.3500000   15.7270000   31.2780000  
H 14.1830000   15.5090000   27.3410000  
H 12.9920000   19.0740000   23.8560000  
H 10.9450000   20.9960000   25.4880000  
C 13.9800000   17.3170000   24.9860000  
C 13.4900000   16.9710000   23.7190000  
C 14.3360000   16.5080000   22.7470000  
C 15.7410000   16.4620000   22.8450000  
C 16.2480000   16.7770000   24.1440000  
C 15.3950000   17.1900000   25.2040000  
C 12.1200000   16.8020000   23.2060000  
C 12.2610000   16.4330000   21.8300000  
N 13.6570000   16.1960000   21.5980000  
O  9.8970000   16.5740000   21.5270000  
C 11.1090000   16.5110000   20.8830000  
O 11.1080000   16.4060000   19.6550000  
O 17.6540000   16.5430000   24.4780000  
O 16.0180000   17.7010000   26.3580000  
H 11.1480000   17.0990000   23.6320000  
H 10.0800000   16.3700000   22.4590000  
H 14.0940000   16.0240000   20.6540000  
H 17.9960000   16.0090000   23.7290000  
H 16.8740000   17.1920000   26.2970000  
C 16.6270000   16.1450000   21.6660000  
C 16.6570000   16.9030000   20.4700000  
C 17.4040000   16.6110000   19.4130000  
C 18.3430000   15.5020000   19.3280000  
C 18.3810000   14.7190000   20.5210000  
C 17.5870000   15.0660000   21.6320000  
C 15.7880000   18.0150000   20.1270000  
C 16.0180000   18.2470000   18.7580000  
N 17.0680000   17.4340000   18.3410000  
O 14.2570000   19.8270000   18.4300000  
C 15.3490000   19.2190000   17.9120000  
O 15.7660000   19.4970000   16.7850000  
O 19.2070000   13.5930000   20.5300000  
O 17.6970000   14.1830000   22.7290000  
H 15.0280000   18.4520000   20.6650000  
H 14.2280000   19.4360000   19.3060000  
H 17.4000000   17.2610000   17.3810000  
H 19.6110000   13.3980000   19.6450000  
H 18.1320000   13.4340000   22.4220000  
C 19.1230000   15.1800000   18.0850000  
C 20.0880000   16.0530000   17.5610000  
C 20.7790000   15.7700000   16.3740000  
C 20.3770000   14.6720000   15.5750000  
C 19.4040000   13.8040000   16.0450000  
C 18.7370000   14.0690000   17.3030000  
C 20.5970000   17.3460000   18.0030000  
C 21.6450000   17.6550000   17.1530000  
N 21.7320000   16.7290000   16.1210000  
O 22.2460000   19.5840000   18.4820000  
C 22.5330000   18.8250000   17.3420000  
O 23.4580000   19.1520000   16.6140000  
O 19.0700000   12.7940000   15.2660000  
O 17.6840000   13.2520000   17.6050000  
H 20.3450000   17.8810000   18.9200000  
H 21.5420000   19.2350000   19.0880000  
H 22.3910000   16.7700000   15.4020000  
H 18.8990000   11.9610000   15.7580000  
H 17.4090000   13.4740000   18.4780000  
H 20.7990000   14.6010000   14.5620000  
