78
000 
C  9.7390000   15.8060000   25.2300000  
C  9.2840000   16.7610000   26.1380000  
C 10.1780000   17.8470000   26.4520000  
C 11.4090000   17.9670000   25.7880000  
C 11.8490000   16.9880000   24.8810000  
C 11.0000000   15.9510000   24.5440000  
C 10.0450000   18.9420000   27.3290000  
C 11.1920000   19.6600000   27.2260000  
N 12.0820000   19.1060000   26.2690000  
O 10.4490000   21.2220000   28.7990000  
C 11.4420000   20.8860000   27.9170000  
O 12.4310000   21.5770000   27.6940000  
O 11.3420000   15.0120000   23.6070000  
O  8.8300000   14.8400000   24.8790000  
H  8.3080000   16.6730000   26.5240000  
H  9.2050000   19.0550000   27.9520000  
H  9.7770000   20.5500000   28.6300000  
H 12.9830000   19.4810000   25.9850000  
H 12.1890000   15.2380000   23.2620000  
H  9.2010000   14.2960000   24.1540000  
C 13.1140000   17.1690000   24.1520000  
C 14.1700000   16.3300000   24.5170000  
C 15.2370000   16.2790000   23.6760000  
C 15.4070000   17.0090000   22.4710000  
C 14.3820000   18.0330000   22.3030000  
C 13.2640000   18.1410000   23.1220000  
C 14.4070000   15.3060000   25.5750000  
C 15.7020000   14.8710000   25.3000000  
N 16.2010000   15.4180000   24.1190000  
O 15.8860000   13.4160000   27.2540000  
C 16.5280000   14.0580000   26.2520000  
O 17.7190000   14.1170000   26.3060000  
O 14.4890000   18.7750000   21.1770000  
O 12.2470000   19.0490000   22.9410000  
H 13.8160000   15.1220000   26.4650000  
H 14.9270000   13.5450000   26.9740000  
H 17.0610000   15.2490000   23.6330000  
H 15.2290000   18.4340000   20.6460000  
H 11.7670000   18.7290000   23.7640000  
C 16.5900000   16.8820000   21.5300000  
C 16.7400000   15.8160000   20.6080000  
C 17.9500000   15.6950000   19.9470000  
C 18.9160000   16.7450000   19.8930000  
C 18.7070000   17.8460000   20.6820000  
C 17.6010000   17.8860000   21.5650000  
C 15.9150000   14.7210000   20.1820000  
C 16.6380000   14.0130000   19.1980000  
N 17.8620000   14.5730000   19.0380000  
O 15.0400000   12.3220000   18.9690000  
C 16.2600000   12.7420000   18.6120000  
O 16.9670000   12.1740000   17.8070000  
O 19.6700000   18.7840000   20.6660000  
O 17.6300000   18.8000000   22.5280000  
H 14.9650000   14.4880000   20.5000000  
H 14.6220000   13.0490000   19.4140000  
H 18.4870000   14.2670000   18.2800000  
H 20.1800000   18.6590000   19.7700000  
H 18.5790000   19.0980000   22.6040000  
C 20.0800000   16.5240000   18.9870000  
C 20.1100000   16.9090000   17.6270000  
C 21.2290000   16.7210000   16.8190000  
C 22.4560000   16.2000000   17.2210000  
C 22.4220000   15.8710000   18.6000000  
C 21.3280000   16.0310000   19.4600000  
C 19.0390000   17.5060000   16.8130000  
C 19.7020000   17.7780000   15.6060000  
N 21.0390000   17.3220000   15.6660000  
O 17.9700000   19.0900000   14.6720000  
C 19.2200000   18.6130000   14.4650000  
O 19.9030000   18.8060000   13.4710000  
O 23.5590000   15.3510000   19.1430000  
O 21.5080000   15.7710000   20.7590000  
H 18.0960000   17.7760000   17.2320000  
H 17.6000000   18.6490000   15.4640000  
H 21.7470000   17.4340000   14.9620000  
H 23.4120000   15.0850000   20.0720000  
H 20.6680000   15.6430000   21.2430000  
H 23.3430000   16.1780000   16.6310000  
