78
000 
C  9.1400000   15.0150000   24.7520000  
C  8.5890000   16.1910000   25.3330000  
C  9.3510000   17.2950000   25.2950000  
C 10.5960000   17.3000000   24.7030000  
C 11.2010000   16.2190000   24.0120000  
C 10.3890000   15.0820000   24.0630000  
C  9.0690000   18.6430000   25.8340000  
C 10.2100000   19.3640000   25.5930000  
N 11.1220000   18.5680000   24.7970000  
O  9.4200000   21.4890000   26.4170000  
C 10.4860000   20.7720000   25.8990000  
O 11.5600000   21.3290000   25.7150000  
O 10.8250000   13.9680000   23.4090000  
O  8.4240000   13.9100000   24.6200000  
H  7.5870000   16.1330000   25.8080000  
H  8.2120000   18.8890000   26.4200000  
H  8.6050000   20.8730000   26.3230000  
H 11.9440000   18.8100000   24.3670000  
H 11.3690000   14.1580000   22.6040000  
H  9.0250000   13.1680000   24.5220000  
C 12.4770000   16.2390000   23.3380000  
C 13.6330000   16.6410000   23.9980000  
C 14.7780000   16.8820000   23.2830000  
C 14.9220000   16.6900000   21.8940000  
C 13.7360000   16.3170000   21.2510000  
C 12.5180000   16.0720000   21.8960000  
C 13.8710000   17.1170000   25.3280000  
C 15.1730000   17.6100000   25.3340000  
N 15.7120000   17.4720000   24.0250000  
O 15.6050000   17.7350000   27.6780000  
C 16.0000000   18.1070000   26.4760000  
O 16.9450000   18.8320000   26.2590000  
O 13.7680000   16.2210000   19.8370000  
O 11.3840000   15.6480000   21.1880000  
H 13.1040000   17.2000000   26.1240000  
H 14.7920000   17.2810000   27.5300000  
H 16.7210000   17.6720000   23.7940000  
H 14.7120000   16.1080000   19.5250000  
H 11.4740000   15.7680000   20.2610000  
C 16.1980000   16.9670000   21.1340000  
C 17.3940000   16.2630000   21.3560000  
C 18.5420000   16.4830000   20.6450000  
C 18.6510000   17.4830000   19.6760000  
C 17.4800000   18.2660000   19.4670000  
C 16.3260000   18.0040000   20.1820000  
C 17.6400000   15.0510000   22.1350000  
C 18.9780000   14.6740000   21.9060000  
N 19.5140000   15.5470000   21.0060000  
O 19.2060000   12.9890000   23.5670000  
C 19.8360000   13.6520000   22.5930000  
O 20.9640000   13.3520000   22.2400000  
O 17.5330000   19.2100000   18.5110000  
O 15.2050000   18.8020000   19.8260000  
H 17.0540000   14.7010000   23.0580000  
H 18.4120000   13.4290000   23.7150000  
H 20.4920000   15.4160000   20.7410000  
H 18.4830000   19.1420000   18.1560000  
H 15.4810000   19.5350000   19.2160000  
C 19.9530000   17.5170000   18.9100000  
C 20.6510000   16.4580000   18.2340000  
C 21.9070000   16.5300000   17.6430000  
C 22.6690000   17.6890000   17.8560000  
C 22.0490000   18.8530000   18.3570000  
C 20.7280000   18.7350000   18.8540000  
C 20.1680000   15.0840000   18.0260000  
C 21.2010000   14.4760000   17.2880000  
N 22.2990000   15.3070000   17.1380000  
O 19.8800000   12.4010000   17.0500000  
C 21.0310000   13.0890000   16.6940000  
O 21.8390000   12.6170000   15.8730000  
O 22.7320000   20.0460000   18.4760000  
O 20.4320000   19.7650000   19.6120000  
H 19.2330000   14.6100000   18.2690000  
H 19.5750000   12.8990000   17.8280000  
H 23.1830000   14.9700000   16.8080000  
H 22.0880000   20.6940000   18.8410000  
H 19.6900000   19.5280000   20.2270000  
H 23.6600000   17.7070000   17.5090000  
