78
000 
C 21.9540000   12.3590000   19.7510000  
C 21.7280000   12.1990000   18.4070000  
C 20.6850000   12.9060000   17.8470000  
C 19.8740000   13.7220000   18.5400000  
C 20.0020000   13.9470000   19.9020000  
C 21.0330000   13.1830000   20.5130000  
C 20.1230000   12.8640000   16.4730000  
C 18.9180000   13.5290000   16.4780000  
N 18.8110000   14.1120000   17.7500000  
O 18.4050000   12.8490000   14.2790000  
C 17.9730000   13.5980000   15.3100000  
O 16.9520000   14.2490000   15.2990000  
O 21.3070000   13.3060000   21.7920000  
O 23.0210000   11.7820000   20.3890000  
H 22.3000000   11.5680000   17.7280000  
H 20.3590000   12.1310000   15.6970000  
H 19.2250000   12.3050000   14.4780000  
H 17.9540000   14.5350000   18.0430000  
H 20.5610000   13.8050000   22.2450000  
H 23.2260000   12.4310000   21.0850000  
C 19.0980000   14.8570000   20.7690000  
C 18.3910000   14.3940000   21.8940000  
C 17.3770000   15.1790000   22.4090000  
C 16.9530000   16.4210000   21.9530000  
C 17.7060000   16.9270000   20.8830000  
C 18.7300000   16.1760000   20.2950000  
C 18.2700000   13.1740000   22.7000000  
C 17.2740000   13.3540000   23.6630000  
N 16.7140000   14.6260000   23.4950000  
O 17.4430000   11.1270000   24.4930000  
C 16.8490000   12.3020000   24.6170000  
O 16.0050000   12.5380000   25.4400000  
O 17.4420000   18.2050000   20.3310000  
O 19.3980000   16.7590000   19.2930000  
H 18.6610000   12.2140000   22.3710000  
H 17.9330000   11.0150000   23.6160000  
H 16.0440000   15.1050000   24.1030000  
H 16.6910000   18.5570000   20.8010000  
H 20.2860000   16.3700000   19.0950000  
C 15.6510000   17.0530000   22.4740000  
C 15.6650000   18.1460000   23.3320000  
C 14.4370000   18.6140000   23.7780000  
C 13.1950000   18.1780000   23.3450000  
C 13.2450000   17.1070000   22.4470000  
C 14.4440000   16.4790000   22.1180000  
C 16.6910000   18.9480000   23.9340000  
C 15.9940000   19.8540000   24.7680000  
N 14.6020000   19.6850000   24.6740000  
O 17.8950000   20.9570000   25.5740000  
C 16.5420000   20.8370000   25.5870000  
O 15.8850000   21.6940000   26.1090000  
O 12.0910000   16.5750000   22.0200000  
O 14.3170000   15.3150000   21.4010000  
H 17.7430000   18.9810000   23.7570000  
H 18.2370000   20.1740000   25.0520000  
H 13.9030000   20.2120000   25.1250000  
H 11.3870000   17.1000000   22.4160000  
H 13.3730000   15.0190000   21.5390000  
C 11.8760000   18.7970000   23.8250000  
C 11.5860000   20.1310000   23.5180000  
C 10.3410000   20.6250000   23.6780000  
C  9.2920000   19.9560000   24.3410000  
C  9.5180000   18.6530000   24.7100000  
C 10.8080000   18.0970000   24.4740000  
C 12.4900000   21.1760000   23.0240000  
C 11.6680000   22.2540000   22.8260000  
N 10.3510000   21.9300000   23.2470000  
O 13.3260000   23.6610000   21.8280000  
C 11.9780000   23.5110000   22.1300000  
O 11.1480000   24.3050000   21.6350000  
O  8.4950000   18.0420000   25.4770000  
O 11.0840000   16.8120000   24.9780000  
H 13.4310000   21.1310000   22.5070000  
H 13.7110000   22.8690000   22.2760000  
H  9.6130000   22.5960000   23.4310000  
H  8.3840000   17.1500000   25.0910000  
H 12.0750000   16.7330000   25.1210000  
H  8.4030000   20.3940000   24.6320000  
