78
000 
C 15.9720000   13.1550000   15.1860000  
C 15.2660000   14.0350000   14.3180000  
C 14.8580000   15.2770000   14.8290000  
C 15.1510000   15.5720000   16.0950000  
C 15.7740000   14.7620000   17.0020000  
C 16.2630000   13.5180000   16.4970000  
C 14.0600000   16.3210000   14.2770000  
C 13.9700000   17.3630000   15.2140000  
N 14.6060000   16.8280000   16.3970000  
O 12.6530000   18.8270000   13.9100000  
C 13.1830000   18.6030000   15.0880000  
O 13.0600000   19.3860000   16.0380000  
O 16.9160000   12.6480000   17.3110000  
O 16.4940000   11.9860000   14.7150000  
H 15.1220000   13.7690000   13.2180000  
H 13.5400000   16.2720000   13.3450000  
H 12.8910000   18.0390000   13.3460000  
H 14.6830000   17.2670000   17.3020000  
H 16.8690000   13.0910000   18.1490000  
H 16.7530000   11.4620000   15.5160000  
C 16.0080000   15.2370000   18.3410000  
C 14.9780000   15.2660000   19.3560000  
C 15.1870000   15.6680000   20.6450000  
C 16.4130000   16.2870000   21.0280000  
C 17.4890000   16.1420000   20.0780000  
C 17.3150000   15.6040000   18.7800000  
C 13.5660000   15.0910000   19.3230000  
C 13.0300000   15.3220000   20.5590000  
N 14.0300000   15.6630000   21.4480000  
O 10.7600000   14.8740000   19.8120000  
C 11.5990000   15.1490000   20.8270000  
O 11.1790000   15.1650000   21.9810000  
O 18.6770000   16.5970000   20.4030000  
O 18.3200000   15.5470000   17.9100000  
H 12.9300000   14.8140000   18.4680000  
H 11.2880000   14.9710000   19.0660000  
H 13.9650000   15.8350000   22.4040000  
H 18.5060000   17.2970000   21.0700000  
H 19.1260000   15.6770000   18.4110000  
C 16.5030000   16.8660000   22.4470000  
C 16.6530000   15.9540000   23.5220000  
C 16.8180000   16.5130000   24.8030000  
C 16.5910000   17.9030000   25.1350000  
C 16.4050000   18.7820000   24.0700000  
C 16.5050000   18.3120000   22.6840000  
C 16.8780000   14.5110000   23.7020000  
C 16.9770000   14.2910000   25.0680000  
N 16.9690000   15.5410000   25.7260000  
O 17.1670000   11.8270000   24.8710000  
C 17.1280000   12.9390000   25.7000000  
O 17.2340000   12.7100000   26.8860000  
O 16.2150000   20.0960000   24.3100000  
O 16.3340000   19.2610000   21.7050000  
H 16.8030000   13.6870000   22.9560000  
H 17.1430000   12.1690000   23.9880000  
H 17.0850000   15.7850000   26.7280000  
H 16.1390000   20.1020000   25.3060000  
H 16.1230000   20.0790000   22.0710000  
C 16.4410000   18.3390000   26.5800000  
C 17.2690000   19.3790000   27.0890000  
C 17.0870000   19.7780000   28.3740000  
C 16.0280000   19.3420000   29.2350000  
C 15.1940000   18.3360000   28.6770000  
C 15.4120000   17.8570000   27.3990000  
C 18.3580000   20.0350000   26.5220000  
C 18.7180000   20.9370000   27.4690000  
N 18.0670000   20.7210000   28.7090000  
O 20.4320000   21.9860000   26.0960000  
C 19.8270000   21.9850000   27.2760000  
O 20.1160000   22.7610000   28.1530000  
O 14.1020000   18.0100000   29.4150000  
O 14.5870000   16.9340000   26.9370000  
H 18.7930000   19.7820000   25.5620000  
H 19.9010000   21.4770000   25.4250000  
H 18.2940000   21.2170000   29.5490000  
H 13.6030000   17.2990000   28.9810000  
H 14.6750000   16.8880000   25.9750000  
H 15.9340000   19.7430000   30.2270000  
