78
000 
C 16.4710000   12.2450000   16.0130000  
C 17.5750000   11.4660000   16.1270000  
C 18.3530000   11.6530000   17.1720000  
C 18.1520000   12.6820000   18.0700000  
C 17.1150000   13.5800000   17.9920000  
C 16.1580000   13.2600000   16.9450000  
C 19.5370000   10.9840000   17.5940000  
C 20.0110000   11.6070000   18.7740000  
N 19.1460000   12.6600000   19.0380000  
O 21.7840000   10.1590000   19.3500000  
C 21.2430000   11.3700000   19.5850000  
O 21.6930000   12.1450000   20.4020000  
O 15.0700000   14.1090000   16.7510000  
O 15.5760000   11.8630000   15.0760000  
H 17.8280000   10.6340000   15.4640000  
H 20.0090000   10.1690000   17.0780000  
H 21.3560000    9.7160000   18.6010000  
H 19.2190000   13.3300000   19.7870000  
H 15.0400000   14.7700000   17.4420000  
H 14.7470000   12.3540000   15.2760000  
C 16.7650000   14.5820000   19.0140000  
C 17.5410000   15.7710000   19.1450000  
C 17.3370000   16.5800000   20.1990000  
C 16.2990000   16.4780000   21.1560000  
C 15.4670000   15.3110000   21.0360000  
C 15.7420000   14.3250000   20.0060000  
C 18.7080000   16.2580000   18.3770000  
C 19.1040000   17.4040000   19.0840000  
N 18.1450000   17.6600000   20.1510000  
O 21.1190000   17.9260000   17.8950000  
C 20.2870000   18.2920000   18.9010000  
O 20.4690000   19.2070000   19.6220000  
O 14.4790000   15.1940000   22.0250000  
O 14.8780000   13.2820000   19.9180000  
H 19.1790000   15.8180000   17.5940000  
H 20.8050000   17.0460000   17.6230000  
H 18.2470000   18.3390000   20.9250000  
H 14.7470000   15.6720000   22.8170000  
H 15.3350000   12.5490000   19.4350000  
C 16.0730000   17.4860000   22.2780000  
C 14.8410000   18.1820000   22.3600000  
C 14.4410000   18.9130000   23.4050000  
C 15.1780000   19.1580000   24.6120000  
C 16.4410000   18.5480000   24.5230000  
C 16.9190000   17.6990000   23.4200000  
C 13.7420000   18.2300000   21.3820000  
C 12.6980000   18.8660000   21.9620000  
N 13.1260000   19.3650000   23.1990000  
O 11.2140000   18.5470000   20.1910000  
C 11.3110000   19.0710000   21.4110000  
O 10.3780000   19.6170000   21.9670000  
O 17.2350000   18.6250000   25.5850000  
O 18.1240000   17.0380000   23.5550000  
H 13.8340000   17.7030000   20.4550000  
H 12.1680000   18.3110000   20.0430000  
H 12.6070000   20.0400000   23.8360000  
H 16.6800000   18.3250000   26.3160000  
H 18.4740000   17.3990000   24.3650000  
C 14.6430000   20.1160000   25.6920000  
C 13.6640000   19.7730000   26.6140000  
C 13.3510000   20.5630000   27.6570000  
C 13.9010000   21.8190000   27.8510000  
C 14.8810000   22.2130000   26.9630000  
C 15.2360000   21.4030000   25.8980000  
C 12.9050000   18.6010000   26.7240000  
C 11.9580000   18.7390000   27.7360000  
N 12.3060000   20.0010000   28.3880000  
O 10.8200000   16.7010000   27.3570000  
C 10.9290000   17.7780000   28.1520000  
O 10.2030000   17.8840000   29.1630000  
O 15.4590000   23.3880000   27.2030000  
O 16.3500000   21.8170000   25.1300000  
H 13.0070000   17.6870000   26.1250000  
H 11.4250000   16.8990000   26.6500000  
H 11.8660000   20.3220000   29.2460000  
H 16.0480000   23.5730000   26.4930000  
H 16.2240000   21.3750000   24.3000000  
H 13.6560000   22.4310000   28.7240000  
