78
000 
C  9.1020000   18.3600000   23.6500000  
C  8.1450000   18.1960000   22.6220000  
C  8.5460000   17.6060000   21.4310000  
C  9.7880000   17.1930000   21.2590000  
C 10.7730000   17.2050000   22.2790000  
C 10.3760000   17.8240000   23.4950000  
C  7.8870000   17.4120000   20.1360000  
C  8.8200000   16.8370000   19.3210000  
N 10.0250000   16.7300000   19.9890000  
O  7.4370000   16.6640000   17.4750000  
C  8.6400000   16.3840000   17.9480000  
O  9.4770000   15.9220000   17.2250000  
O 11.3290000   18.0390000   24.4580000  
O  8.7360000   18.9460000   24.7900000  
H  7.1010000   18.6110000   22.8060000  
H  6.8260000   17.3860000   19.9410000  
H  7.0860000   17.1490000   18.1480000  
H 10.8800000   16.2780000   19.6750000  
H 12.1820000   17.8180000   24.0190000  
H  9.6180000   19.1090000   25.2720000  
C 12.2130000   16.7430000   22.1590000  
C 13.0240000   17.2650000   21.1600000  
C 14.3680000   16.9960000   21.1830000  
C 15.0720000   16.1610000   22.0170000  
C 14.2460000   15.5340000   22.9720000  
C 12.9160000   15.9250000   23.1050000  
C 12.8910000   18.1140000   20.0450000  
C 14.0410000   18.2380000   19.3550000  
N 15.0170000   17.6510000   20.1240000  
O 13.2750000   19.5060000   17.4340000  
C 14.2930000   18.9070000   18.0540000  
O 15.4310000   19.0130000   17.6390000  
O 14.7150000   14.6210000   23.8790000  
O 12.1570000   15.3610000   24.1520000  
H 11.8470000   18.6040000   19.8300000  
H 12.4200000   19.2270000   17.7410000  
H 16.0010000   17.6170000   19.8680000  
H 15.6670000   14.4290000   23.6200000  
H 11.2620000   15.4220000   23.7480000  
C 16.5200000   16.0260000   21.9370000  
C 17.3210000   17.0960000   22.3040000  
C 18.6980000   16.9320000   22.2840000  
C 19.4500000   15.7180000   22.0400000  
C 18.5570000   14.6230000   21.7340000  
C 17.1450000   14.7630000   21.6930000  
C 17.1160000   18.4260000   22.8310000  
C 18.3790000   19.0310000   23.0150000  
N 19.3190000   18.1540000   22.5860000  
O 17.6230000   21.2250000   23.7350000  
C 18.6560000   20.4830000   23.3520000  
O 19.7680000   21.0060000   23.2600000  
O 19.0860000   13.4180000   21.3780000  
O 16.3980000   13.6130000   21.4820000  
H 16.1830000   18.9210000   23.1340000  
H 16.7990000   20.7010000   23.7050000  
H 20.2790000   18.4670000   22.4910000  
H 20.0440000   13.4990000   21.4440000  
H 16.9810000   12.8590000   21.4470000  
C 20.9340000   15.6030000   21.8810000  
C 21.7890000   15.3540000   22.9810000  
C 23.1040000   15.2920000   22.8350000  
C 23.7550000   15.4460000   21.6450000  
C 22.9420000   15.5240000   20.5170000  
C 21.5300000   15.6400000   20.6130000  
C 21.4990000   15.1790000   24.4100000  
C 22.7430000   15.0850000   25.0370000  
N 23.7380000   15.3060000   24.0700000  
O 21.8280000   14.4720000   27.2700000  
C 22.9050000   14.7700000   26.4630000  
O 23.9880000   14.8340000   26.9850000  
O 23.6360000   15.8340000   19.3780000  
O 20.8210000   15.7660000   19.4470000  
H 20.5280000   14.9380000   24.9510000  
H 21.0350000   14.5610000   26.7260000  
H 24.6850000   15.2200000   24.2760000  
H 22.9850000   16.0840000   18.6790000  
H 19.8980000   15.5540000   19.6300000  
H 24.8230000   15.4690000   21.6120000  
