78
000 
C 20.5650000   10.7780000   20.7270000  
C 21.7160000   11.1710000   21.4180000  
C 21.7160000   12.4200000   21.9330000  
C 20.6350000   13.1830000   21.8400000  
C 19.3810000   12.8230000   21.3090000  
C 19.3250000   11.5350000   20.7000000  
C 22.7560000   13.1600000   22.5660000  
C 22.1630000   14.4350000   22.8240000  
N 20.8420000   14.4380000   22.3810000  
O 24.0320000   15.6120000   23.7450000  
C 22.7400000   15.6920000   23.3650000  
O 22.1070000   16.7340000   23.3500000  
O 18.1630000   11.1380000   20.0150000  
O 20.6740000    9.5840000   20.1040000  
H 22.5900000   10.5070000   21.5150000  
H 23.8600000   12.8870000   22.7110000  
H 24.2920000   14.6900000   23.7850000  
H 20.2240000   15.2430000   22.3830000  
H 18.0250000   11.7370000   19.2410000  
H 19.7750000    9.2780000   19.8980000  
C 18.1520000   13.6650000   21.3420000  
C 17.8390000   14.4500000   20.2600000  
C 16.9760000   15.4870000   20.3680000  
C 16.2160000   15.7950000   21.5430000  
C 16.3430000   14.8520000   22.5990000  
C 17.4180000   13.9000000   22.5250000  
C 18.3110000   14.5340000   18.9360000  
C 17.6470000   15.5880000   18.2950000  
N 16.7770000   16.2070000   19.2200000  
O 18.9760000   15.5740000   16.3160000  
C 17.8950000   16.0550000   16.8780000  
O 17.2660000   16.9520000   16.3330000  
O 15.7660000   15.1500000   23.8470000  
O 17.7520000   13.1850000   23.6420000  
H 19.0580000   13.8240000   18.5150000  
H 19.4250000   15.0560000   17.0090000  
H 16.3380000   17.1470000   19.1640000  
H 15.4070000   16.0070000   23.8510000  
H 18.6410000   12.7060000   23.5090000  
C 15.2640000   16.9220000   21.7180000  
C 13.8700000   16.6790000   21.9520000  
C 13.0250000   17.7060000   22.0690000  
C 13.2670000   19.0910000   22.1280000  
C 14.6740000   19.3690000   21.9840000  
C 15.6400000   18.3340000   21.6960000  
C 13.0760000   15.4790000   22.0650000  
C 11.7530000   15.9330000   22.1010000  
N 11.7360000   17.2940000   22.2630000  
O 10.8300000   13.7590000   21.6020000  
C 10.5920000   15.0600000   21.9860000  
O  9.4710000   15.4360000   22.0470000  
O 15.1200000   20.7070000   22.0080000  
O 16.9590000   18.6910000   21.5110000  
H 13.3960000   14.4930000   21.8240000  
H 11.7930000   13.6840000   21.4960000  
H 10.8720000   17.8920000   22.3310000  
H 14.4550000   21.3580000   22.3390000  
H 16.9870000   19.6220000   21.9350000  
C 12.2510000   20.1610000   22.2760000  
C 12.3150000   21.0000000   23.4140000  
C 11.4640000   22.0900000   23.5750000  
C 10.3940000   22.3280000   22.6860000  
C 10.2020000   21.4370000   21.5800000  
C 11.1590000   20.3510000   21.4020000  
C 13.1860000   21.0450000   24.5980000  
C 12.8480000   22.1640000   25.3050000  
N 11.8080000   22.8050000   24.6460000  
O 14.4900000   21.8900000   26.9430000  
C 13.4970000   22.6690000   26.5450000  
O 13.1860000   23.7130000   27.1660000  
O  9.1740000   21.6560000   20.6630000  
O 11.0570000   19.5150000   20.2590000  
H 14.0290000   20.4080000   24.7800000  
H 14.5910000   21.3300000   26.1780000  
H 11.3100000   23.5080000   25.1450000  
H  9.2750000   21.1160000   19.9240000  
H 11.9920000   19.2450000   20.1550000  
H  9.7120000   23.2250000   22.7500000  
