78
000 
C 18.2250000   12.8210000   16.2450000  
C 17.9560000   13.4280000   14.9720000  
C 17.2440000   14.6440000   15.0510000  
C 16.8570000   15.2420000   16.2720000  
C 17.2070000   14.6590000   17.4880000  
C 17.9560000   13.4200000   17.4780000  
C 16.6510000   15.5340000   14.0650000  
C 15.9350000   16.5330000   14.8180000  
N 15.9960000   16.2330000   16.1240000  
O 15.2950000   17.7490000   12.8740000  
C 15.1720000   17.6000000   14.2330000  
O 14.3760000   18.2420000   14.9130000  
O 18.0720000   12.6630000   18.6100000  
O 18.9220000   11.6870000   16.2630000  
H 18.0940000   13.0030000   13.9620000  
H 16.7250000   15.5650000   12.9850000  
H 16.0600000   17.1780000   12.6420000  
H 15.5380000   16.7640000   16.8690000  
H 17.9240000   13.1940000   19.3750000  
H 18.8270000   11.2930000   17.1380000  
C 16.7730000   15.2150000   18.8010000  
C 15.3970000   15.4480000   19.0150000  
C 15.0080000   15.9530000   20.2470000  
C 15.8200000   16.3010000   21.3800000  
C 17.2150000   15.9000000   21.1570000  
C 17.6670000   15.4450000   19.8920000  
C 14.1620000   15.2580000   18.2630000  
C 13.1070000   15.6900000   19.1100000  
N 13.6380000   16.2610000   20.3100000  
O 11.3940000   15.1020000   17.5730000  
C 11.6560000   15.6160000   18.8050000  
O 10.7390000   15.9520000   19.5180000  
O 18.1660000   16.2620000   22.1200000  
O 19.0530000   15.3110000   19.7200000  
H 14.1140000   14.7710000   17.3050000  
H 12.1940000   14.7430000   17.2490000  
H 13.1200000   16.8350000   20.9430000  
H 17.5990000   16.5530000   22.9080000  
H 19.2090000   15.5730000   18.8060000  
C 15.4060000   16.8370000   22.7170000  
C 15.6080000   16.0940000   23.9530000  
C 15.3720000   16.7730000   25.1240000  
C 14.9110000   18.0710000   25.2980000  
C 14.6750000   18.8010000   24.1450000  
C 14.9410000   18.2140000   22.8700000  
C 16.1690000   14.8760000   24.3510000  
C 16.1900000   14.7860000   25.7670000  
N 15.7340000   16.0360000   26.2260000  
O 16.8440000   12.4920000   26.0050000  
C 16.6100000   13.6070000   26.6030000  
O 16.7340000   13.7820000   27.8380000  
O 14.3690000   20.1330000   24.2010000  
O 14.5350000   18.9010000   21.7310000  
H 16.5760000   14.1100000   23.7260000  
H 16.5230000   12.6030000   25.0760000  
H 15.6570000   16.2720000   27.1770000  
H 14.4560000   20.3920000   25.1530000  
H 14.5600000   19.8190000   21.9240000  
C 14.9400000   18.7260000   26.6390000  
C 16.1400000   19.4690000   26.9790000  
C 16.2610000   20.1630000   28.1240000  
C 15.1880000   20.3660000   29.0420000  
C 14.0230000   19.5320000   28.8080000  
C 13.8970000   18.7950000   27.5900000  
C 17.3660000   19.5630000   26.2040000  
C 18.2270000   20.4390000   26.8760000  
N 17.5310000   20.8190000   28.0540000  
O 19.8590000   20.3590000   25.2150000  
C 19.5470000   20.8180000   26.4450000  
O 20.2660000   21.5790000   26.9740000  
O 12.9770000   19.5710000   29.6450000  
O 12.7340000   18.1570000   27.3300000  
H 17.5740000   19.0420000   25.2310000  
H 19.2420000   19.6760000   25.0720000  
H 18.0060000   21.2950000   28.7890000  
H 12.3100000   18.8440000   29.5530000  
H 12.6570000   18.0320000   26.3850000  
H 15.3080000   21.0630000   29.8640000  
