78
000 
C 17.7220000   15.2650000   14.7440000  
C 17.5460000   13.8590000   14.5030000  
C 17.3370000   13.0150000   15.5980000  
C 16.9410000   13.5620000   16.7920000  
C 16.9230000   14.9270000   17.0860000  
C 17.4290000   15.8080000   16.0300000  
C 16.9890000   11.5960000   15.5960000  
C 16.4010000   11.3420000   16.8780000  
N 16.4600000   12.5420000   17.6390000  
O 16.2400000    9.0770000   16.6450000  
C 16.0090000   10.0830000   17.4860000  
O 15.5060000    9.9520000   18.5770000  
O 17.5310000   17.1450000   16.2200000  
O 18.1000000   16.0870000   13.7010000  
H 17.7930000   13.4000000   13.4920000  
H 17.1250000   10.8750000   14.8420000  
H 16.7000000    9.5680000   15.9690000  
H 16.0960000   12.6740000   18.5630000  
H 17.5200000   17.3710000   17.1860000  
H 18.0360000   17.0210000   14.0880000  
C 16.5200000   15.4670000   18.4110000  
C 17.4580000   16.2840000   19.0830000  
C 17.1550000   16.8800000   20.2210000  
C 15.9230000   16.7610000   20.9010000  
C 14.9270000   15.9880000   20.2050000  
C 15.2880000   15.2310000   19.0860000  
C 18.9000000   16.5680000   18.8580000  
C 19.2670000   17.3580000   19.9380000  
N 18.1970000   17.5450000   20.8180000  
O 21.6580000   17.2580000   19.5930000  
C 20.6390000   17.7230000   20.3150000  
O 20.9260000   18.3770000   21.3140000  
O 13.7890000   15.7890000   20.8300000  
O 14.3090000   14.4350000   18.4760000  
H 19.5500000   16.1530000   18.1190000  
H 21.3080000   16.8410000   18.7980000  
H 18.2470000   18.1720000   21.6530000  
H 13.6420000   16.5270000   21.4720000  
H 13.4430000   14.5860000   18.9060000  
C 15.6120000   17.3020000   22.2760000  
C 14.6180000   18.3750000   22.6290000  
C 14.5410000   18.9190000   23.8480000  
C 15.3630000   18.5540000   24.9100000  
C 16.2680000   17.4820000   24.6230000  
C 16.4710000   16.9100000   23.3550000  
C 13.6300000   19.1440000   21.9420000  
C 12.9660000   19.9950000   22.8060000  
N 13.6240000   19.9380000   24.0510000  
O 11.3300000   20.8000000   21.2660000  
C 11.8240000   20.9060000   22.4730000  
O 11.3220000   21.7160000   23.2360000  
O 17.0630000   17.0940000   25.6130000  
O 17.4840000   15.9460000   23.1530000  
H 13.5300000   19.1610000   20.8640000  
H 11.7420000   20.0470000   20.9020000  
H 13.4530000   20.5190000   24.8890000  
H 16.8560000   17.5910000   26.3540000  
H 17.9020000   15.6570000   24.0120000  
C 15.3290000   19.1880000   26.2370000  
C 14.8280000   18.4380000   27.3850000  
C 14.9920000   18.8830000   28.6220000  
C 15.4820000   20.1530000   28.8380000  
C 16.0400000   20.9500000   27.7670000  
C 15.9200000   20.4350000   26.4580000  
C 14.1640000   17.1780000   27.5460000  
C 14.0340000   16.8930000   28.9480000  
N 14.5050000   18.0210000   29.6200000  
O 13.2270000   14.6310000   28.6450000  
C 13.4940000   15.6310000   29.5260000  
O 13.4220000   15.3920000   30.7140000  
O 16.5180000   22.1850000   28.0860000  
O 16.3670000   21.1880000   25.4720000  
H 13.9080000   16.4570000   26.7890000  
H 13.1540000   15.1070000   27.8110000  
H 14.5150000   18.1490000   30.6440000  
H 16.5730000   22.6910000   27.2070000  
H 16.2360000   20.6620000   24.6420000  
H 15.5480000   20.5370000   29.8290000  
