78
000 
C 17.5810000   15.6370000   14.9850000  
C 16.9770000   14.5260000   14.2840000  
C 15.8540000   13.9620000   14.9530000  
C 15.4520000   14.3720000   16.2170000  
C 16.1370000   15.3580000   16.9710000  
C 17.2030000   16.0460000   16.2900000  
C 14.9270000   12.9830000   14.5160000  
C 14.0410000   12.8110000   15.5260000  
N 14.3900000   13.5750000   16.6520000  
O 12.8820000   11.1870000   14.4240000  
C 12.9580000   11.9070000   15.6250000  
O 12.2250000   11.6900000   16.5970000  
O 17.8460000   17.0640000   16.9480000  
O 18.4400000   16.4390000   14.3340000  
H 17.2440000   14.2680000   13.2830000  
H 14.8360000   12.6700000   13.5000000  
H 13.5050000   11.5610000   13.8600000  
H 13.9040000   13.6660000   17.5470000  
H 17.4320000   17.3410000   17.7700000  
H 18.8320000   17.0990000   14.9450000  
C 15.7840000   15.6510000   18.3980000  
C 16.7420000   15.2570000   19.3420000  
C 16.5640000   15.5420000   20.6760000  
C 15.5600000   16.4140000   21.1430000  
C 14.5810000   16.8030000   20.2090000  
C 14.7030000   16.4730000   18.8090000  
C 18.0250000   14.5460000   19.2160000  
C 18.4320000   14.3770000   20.5440000  
N 17.6190000   15.1270000   21.4400000  
O 20.2520000   13.0180000   20.1460000  
C 19.4790000   13.4960000   21.0680000  
O 19.6000000   13.3140000   22.2840000  
O 13.5470000   17.6290000   20.5050000  
O 13.7630000   16.8700000   17.8470000  
H 18.4740000   14.1250000   18.2230000  
H 19.9220000   13.3880000   19.3440000  
H 17.7820000   15.3420000   22.4160000  
H 13.6150000   17.8090000   21.4790000  
H 14.0150000   16.3790000   16.9930000  
C 15.4820000   16.8220000   22.6180000  
C 16.1410000   17.9840000   23.0130000  
C 16.1340000   18.2580000   24.3400000  
C 15.5500000   17.4750000   25.4110000  
C 14.9160000   16.2710000   24.9700000  
C 14.9280000   15.9600000   23.5620000  
C 16.7620000   19.0970000   22.4010000  
C 16.9750000   20.0000000   23.3990000  
N 16.7130000   19.4570000   24.5960000  
O 18.0620000   21.6770000   21.9650000  
C 17.6680000   21.3280000   23.2360000  
O 17.9290000   22.0140000   24.1880000  
O 14.4340000   15.3580000   25.9010000  
O 14.5580000   14.7190000   23.1070000  
H 16.8900000   19.3190000   21.3200000  
H 17.8130000   21.0260000   21.3300000  
H 16.7550000   19.9350000   25.5350000  
H 14.4420000   15.7280000   26.8350000  
H 14.2770000   14.0230000   23.7820000  
C 15.9000000   17.7860000   26.8080000  
C 15.1880000   18.8030000   27.4990000  
C 15.5790000   19.3010000   28.6840000  
C 16.7550000   18.9300000   29.3050000  
C 17.4710000   17.8470000   28.7350000  
C 17.0400000   17.2670000   27.4850000  
C 14.0840000   19.6310000   27.0490000  
C 13.8910000   20.5480000   28.0650000  
N 14.9360000   20.4100000   29.0150000  
O 11.9230000   21.4020000   27.0840000  
C 12.7640000   21.5020000   28.1690000  
O 12.6080000   22.2640000   29.1110000  
O 18.6090000   17.4580000   29.3890000  
O 17.8280000   16.2620000   26.9410000  
H 13.4350000   19.4680000   26.2120000  
H 12.2230000   20.6530000   26.5420000  
H 14.9720000   20.8910000   29.9310000  
H 19.0360000   16.6930000   28.9110000  
H 17.3580000   15.9330000   26.1470000  
H 17.1480000   19.4940000   30.1560000  
