78
000 
C 10.3930000   18.3750000   17.5060000  
C  9.6490000   17.2140000   17.1220000  
C 10.1620000   15.9050000   17.4290000  
C 11.2170000   15.8690000   18.3090000  
C 11.9880000   16.9730000   18.7320000  
C 11.5450000   18.2480000   18.2680000  
C  9.5340000   14.6290000   17.4320000  
C 10.2380000   13.8170000   18.3020000  
N 11.4400000   14.5560000   18.7080000  
O  8.6850000   12.0770000   18.3250000  
C  9.8420000   12.4680000   18.7540000  
O 10.4020000   11.8400000   19.6350000  
O 12.2720000   19.3400000   18.6890000  
O  9.8910000   19.5840000   17.0810000  
H  8.7630000   17.3200000   16.5600000  
H  8.6290000   14.3140000   16.9170000  
H  8.4920000   12.7840000   17.7550000  
H 12.1750000   14.1980000   19.2520000  
H 12.9240000   19.0410000   19.3490000  
H 10.2830000   20.2520000   17.6010000  
C 13.1670000   16.7370000   19.6260000  
C 14.4130000   17.2140000   19.2590000  
C 15.4790000   17.1170000   20.0700000  
C 15.5130000   16.4220000   21.3000000  
C 14.2370000   16.0340000   21.7250000  
C 13.0500000   16.2250000   20.9580000  
C 14.7950000   17.8790000   18.0420000  
C 16.1590000   18.0810000   18.1690000  
N 16.6090000   17.5210000   19.3900000  
O 16.3450000   19.1910000   16.0840000  
C 16.9760000   18.7490000   17.1590000  
O 18.2010000   18.8600000   17.3050000  
O 14.1330000   15.3510000   22.9570000  
O 11.8480000   15.8470000   21.4820000  
H 14.1830000   18.1970000   17.2090000  
H 15.4000000   19.0380000   16.3360000  
H 17.5740000   17.5830000   19.7470000  
H 14.9280000   14.7550000   22.9530000  
H 11.2150000   15.8430000   20.7380000  
C 16.7540000   16.2470000   22.0800000  
C 17.4680000   17.4000000   22.4230000  
C 18.5910000   17.2290000   23.1890000  
C 19.0750000   16.0270000   23.7560000  
C 18.3480000   14.8920000   23.4380000  
C 17.1800000   15.0060000   22.6120000  
C 17.2820000   18.8790000   22.3150000  
C 18.3710000   19.4900000   22.9280000  
N 19.1430000   18.4630000   23.4750000  
O 17.8370000   21.7820000   22.5350000  
C 18.7640000   20.9700000   23.0250000  
O 19.7920000   21.3440000   23.5860000  
O 18.6940000   13.8170000   24.2390000  
O 16.4710000   13.8650000   22.2440000  
H 16.3850000   19.3890000   21.7950000  
H 17.1130000   21.1840000   22.2970000  
H 20.0950000   18.5630000   23.8290000  
H 19.2900000   14.2110000   24.8220000  
H 16.8970000   13.1180000   22.7560000  
C 20.0870000   16.1310000   24.8980000  
C 19.6960000   16.4090000   26.2240000  
C 20.6040000   16.4200000   27.2240000  
C 21.9310000   16.1240000   27.0860000  
C 22.3880000   15.8420000   25.7890000  
C 21.4590000   15.8240000   24.7120000  
C 18.4100000   16.7240000   26.6700000  
C 18.6110000   16.9360000   28.0310000  
N 19.9620000   16.7280000   28.3970000  
O 16.3180000   17.3950000   28.5260000  
C 17.5800000   17.2570000   29.0730000  
O 17.8530000   17.3930000   30.2940000  
O 23.6910000   15.5000000   25.6150000  
O 21.9420000   15.6570000   23.4620000  
H 17.4850000   16.9430000   26.1510000  
H 16.4230000   17.0680000   27.6370000  
H 20.4170000   17.0010000   29.2790000  
H 23.8170000   15.3900000   24.6610000  
H 21.3040000   15.7220000   22.7730000  
H 22.5820000   15.9260000   27.9690000  
