78
000 
C 14.5570000   15.9930000   14.8340000  
C 14.8170000   14.7160000   14.2780000  
C 15.1660000   13.7670000   15.2550000  
C 15.3470000   14.0720000   16.5780000  
C 15.1120000   15.3390000   17.1360000  
C 14.6510000   16.3460000   16.2120000  
C 15.6790000   12.4280000   15.1320000  
C 16.1040000   12.0150000   16.3700000  
N 15.8690000   13.0200000   17.3170000  
O 16.8570000    9.8690000   15.7820000  
C 16.5710000   10.6850000   16.7760000  
O 16.7490000   10.3530000   17.9700000  
O 14.3620000   17.6060000   16.5470000  
O 14.0670000   16.8640000   13.9200000  
H 14.9380000   14.4900000   13.1890000  
H 15.7240000   11.9040000   14.2160000  
H 16.6780000   10.2650000   14.9370000  
H 15.9950000   12.8810000   18.3570000  
H 14.6470000   17.7760000   17.4710000  
H 13.7390000   17.6710000   14.4410000  
C 15.2940000   15.6920000   18.5080000  
C 16.3060000   16.6470000   18.8010000  
C 16.6170000   16.9270000   20.1010000  
C 15.9410000   16.4300000   21.1930000  
C 14.8970000   15.4500000   20.9330000  
C 14.5830000   15.1040000   19.6380000  
C 17.3160000   17.2010000   17.9660000  
C 18.2550000   17.7320000   18.8680000  
N 17.8100000   17.5980000   20.1720000  
O 19.9160000   18.3910000   17.2330000  
C 19.5890000   18.3130000   18.5130000  
O 20.3860000   18.6670000   19.3430000  
O 14.2300000   14.8670000   21.9870000  
O 13.6220000   14.1720000   19.3350000  
H 17.3440000   17.1750000   16.9160000  
H 19.1850000   17.9670000   16.6940000  
H 18.3110000   17.7720000   21.0690000  
H 14.6630000   15.1760000   22.7910000  
H 13.0920000   13.9540000   20.1360000  
C 16.1280000   16.9580000   22.5770000  
C 15.2600000   17.9970000   22.9790000  
C 15.4630000   18.5240000   24.2240000  
C 16.4170000   18.1230000   25.2150000  
C 17.3160000   17.1050000   24.7980000  
C 17.1220000   16.4940000   23.4890000  
C 14.2520000   18.8340000   22.3310000  
C 13.9450000   19.8240000   23.2820000  
N 14.6510000   19.6110000   24.4240000  
O 12.3370000   20.9370000   21.9870000  
C 12.9950000   20.9260000   23.1460000  
O 12.8300000   21.8310000   23.9120000  
O 18.2760000   16.6480000   25.7030000  
O 18.0080000   15.5110000   23.1280000  
H 13.8510000   18.7190000   21.3430000  
H 12.7480000   20.1400000   21.6800000  
H 14.6920000   20.2010000   25.1840000  
H 18.2110000   17.2940000   26.4810000  
H 18.7520000   15.3670000   23.8070000  
C 16.5480000   18.7310000   26.5630000  
C 16.2570000   17.8710000   27.6750000  
C 16.2920000   18.4260000   28.9190000  
C 16.8070000   19.6830000   29.2150000  
C 17.2420000   20.5170000   28.1650000  
C 17.1300000   19.9470000   26.8660000  
C 15.6860000   16.5270000   27.7640000  
C 15.4530000   16.3630000   29.1350000  
N 15.9180000   17.4530000   29.8490000  
O 14.3490000   14.2380000   28.8870000  
C 14.7820000   15.1930000   29.7550000  
O 14.6680000   15.1090000   30.9670000  
O 17.5730000   21.8030000   28.3210000  
O 17.7090000   20.6750000   25.8760000  
H 15.3850000   15.8990000   26.9590000  
H 14.6870000   14.5270000   28.0010000  
H 15.8060000   17.6200000   30.8410000  
H 17.9340000   22.0630000   27.4570000  
H 17.5180000   20.3580000   24.9930000  
H 16.8290000   20.0000000   30.2440000  
