78
000 
C 15.2850000   14.7280000   28.9230000  
C 14.0630000   15.1600000   29.4930000  
C 13.1040000   15.6800000   28.6100000  
C 13.5020000   16.0450000   27.3100000  
C 14.7840000   15.7710000   26.7820000  
C 15.7060000   15.0730000   27.5960000  
C 11.7800000   16.2920000   28.8130000  
C 11.5040000   17.0360000   27.6510000  
N 12.5720000   16.8630000   26.7100000  
O  9.4280000   17.9550000   28.3480000  
C 10.2720000   17.8170000   27.3070000  
O 10.0030000   18.3430000   26.2430000  
O 16.9900000   14.7880000   27.1470000  
O 16.1630000   14.1460000   29.7690000  
H 13.8420000   15.1250000   30.5470000  
H 11.1260000   16.1590000   29.7260000  
H  9.8610000   17.5050000   29.0580000  
H 12.6400000   17.3570000   25.8420000  
H 17.0340000   15.0600000   26.2340000  
H 16.6600000   13.4690000   29.2860000  
C 15.1620000   16.1030000   25.3530000  
C 15.0720000   17.4450000   24.8530000  
C 15.4440000   17.7330000   23.5700000  
C 15.8330000   16.7630000   22.6510000  
C 15.8190000   15.3990000   23.0590000  
C 15.4940000   15.0710000   24.3920000  
C 14.9000000   18.7180000   25.5410000  
C 14.9550000   19.7450000   24.5050000  
N 15.2100000   19.1000000   23.2750000  
O 14.3100000   21.4160000   26.1450000  
C 14.5880000   21.1430000   24.8070000  
O 14.5780000   22.0140000   23.9270000  
O 16.1000000   14.3790000   22.1440000  
O 15.4180000   13.7400000   24.8360000  
H 14.5680000   18.8310000   26.5610000  
H 14.4740000   20.5860000   26.6150000  
H 15.1670000   19.4430000   22.3270000  
H 16.8820000   14.7830000   21.6160000  
H 14.6830000   13.6460000   25.5570000  
C 16.3020000   17.1250000   21.2500000  
C 17.5940000   16.7890000   20.8460000  
C 17.9860000   17.0070000   19.5670000  
C 17.2340000   17.6140000   18.5460000  
C 15.9390000   17.9820000   18.9460000  
C 15.4550000   17.7290000   20.2630000  
C 18.6320000   16.0050000   21.4710000  
C 19.5970000   15.6930000   20.4490000  
N 19.2030000   16.4350000   19.2820000  
O 20.9430000   14.1480000   21.7090000  
C 20.7540000   14.7600000   20.4770000  
O 21.5420000   14.5990000   19.5750000  
O 15.1180000   18.5580000   18.0540000  
O 14.2530000   18.2250000   20.6270000  
H 18.6480000   15.5940000   22.5040000  
H 20.1180000   14.3700000   22.1740000  
H 19.6770000   16.4150000   18.3520000  
H 15.4870000   18.3310000   17.1820000  
H 14.0010000   18.9630000   20.2000000  
C 17.6290000   17.6720000   17.0590000  
C 17.2990000   16.6310000   16.1620000  
C 17.5840000   16.7240000   14.8430000  
C 18.2800000   17.8180000   14.2690000  
C 18.8500000   18.7580000   15.1500000  
C 18.3970000   18.7140000   16.5230000  
C 16.5500000   15.3330000   16.3860000  
C 16.5700000   14.7360000   15.1190000  
N 17.2820000   15.5750000   14.2380000  
O 15.1250000   13.0010000   15.6610000  
C 16.0580000   13.4140000   14.7730000  
O 16.4120000   12.8370000   13.7750000  
O 19.3290000   19.9120000   14.6130000  
O 18.6690000   19.8500000   17.3100000  
H 16.0760000   14.9180000   17.2870000  
H 15.1600000   13.6070000   16.4120000  
H 17.5850000   15.3910000   13.2910000  
H 19.8500000   20.3370000   15.3020000  
H 18.4950000   19.6310000   18.2120000  
H 18.3460000   17.8160000   13.1850000  
