78
000 
C 20.7720000   14.4460000   17.1890000  
C 21.1650000   13.0650000   17.2960000  
C 20.4690000   12.2570000   18.2740000  
C 19.7080000   12.8990000   19.2450000  
C 19.3070000   14.2330000   19.1610000  
C 19.8350000   15.0040000   18.0840000  
C 20.4530000   10.8870000   18.6820000  
C 19.7780000   10.8360000   19.9090000  
N 19.2850000   12.0490000   20.2650000  
O 20.1820000    8.5300000   20.1510000  
C 19.6650000    9.6190000   20.7050000  
O 19.2090000    9.6220000   21.8060000  
O 19.4340000   16.3100000   17.8120000  
O 21.3460000   15.1130000   16.1610000  
H 21.7490000   12.6480000   16.5240000  
H 21.1140000   10.1710000   18.2560000  
H 20.3960000    8.7590000   19.2180000  
H 18.6650000   12.2460000   21.0960000  
H 19.1160000   16.6240000   18.6650000  
H 20.9970000   15.9670000   16.2260000  
C 18.3890000   14.9000000   20.2180000  
C 18.8450000   15.6490000   21.2910000  
C 17.9460000   16.3100000   22.0970000  
C 16.5670000   16.2370000   21.9650000  
C 16.0920000   15.4200000   20.9390000  
C 16.9630000   14.7880000   20.0430000  
C 20.1120000   16.1680000   21.6780000  
C 19.9260000   17.0580000   22.7280000  
N 18.5400000   17.1750000   22.9630000  
O 22.1350000   17.7410000   22.9020000  
C 20.9360000   17.9560000   23.3550000  
O 20.7140000   18.7280000   24.2760000  
O 14.7270000   15.2060000   20.8030000  
O 16.4700000   14.1100000   19.0000000  
H 20.9950000   15.9770000   21.1270000  
H 22.0590000   17.1750000   22.1620000  
H 18.0630000   17.5990000   23.6790000  
H 14.2670000   15.7150000   21.4210000  
H 15.4830000   14.2170000   18.9710000  
C 15.6280000   16.9220000   22.8750000  
C 15.1330000   18.1170000   22.3720000  
C 14.1510000   18.8310000   23.0380000  
C 13.5210000   18.3330000   24.1860000  
C 14.0130000   17.1060000   24.7290000  
C 15.1060000   16.3900000   24.0770000  
C 15.3780000   18.7900000   21.0750000  
C 14.5760000   19.9400000   21.2450000  
N 13.8570000   19.9870000   22.4530000  
O 15.4430000   20.7540000   19.1440000  
C 14.6870000   20.9720000   20.2430000  
O 14.3050000   22.0800000   20.4130000  
O 13.4840000   16.5510000   25.8170000  
O 15.5090000   15.1600000   24.5390000  
H 16.0950000   18.4300000   20.3270000  
H 15.5600000   19.7860000   19.0210000  
H 13.2870000   20.7130000   22.8640000  
H 12.9620000   17.2800000   26.2550000  
H 14.9910000   15.0150000   25.2970000  
C 12.4470000   19.0710000   24.9240000  
C 11.2230000   19.2380000   24.2320000  
C 10.2990000   20.0970000   24.7190000  
C 10.4650000   20.8160000   25.9460000  
C 11.6620000   20.6270000   26.7200000  
C 12.6940000   19.7700000   26.1590000  
C 10.6960000   18.6830000   23.0150000  
C  9.4960000   19.3550000   22.7560000  
N  9.2910000   20.3030000   23.7850000  
O  9.0640000   18.1060000   20.8730000  
C  8.5160000   19.0190000   21.6820000  
O  7.4050000   19.4350000   21.5620000  
O 11.8810000   21.4100000   27.8550000  
O 13.8500000   19.5290000   26.9150000  
H 11.0290000   17.8210000   22.4700000  
H  9.9850000   18.0380000   21.2160000  
H  8.4660000   20.8680000   23.8980000  
H 12.7970000   21.3840000   27.9690000  
H 14.5740000   19.2380000   26.4240000  
H  9.7440000   21.5130000   26.2150000  
