78
000 
C 11.8510000   13.3620000   16.3510000  
C 12.6640000   13.4640000   15.2090000  
C 13.9550000   13.9050000   15.3020000  
C 14.4260000   14.4130000   16.4940000  
C 13.7250000   14.3460000   17.6990000  
C 12.4310000   13.7820000   17.5290000  
C 15.0600000   14.0770000   14.3390000  
C 16.1620000   14.5690000   15.0670000  
N 15.7340000   14.7190000   16.4220000  
O 17.7660000   14.8990000   13.3150000  
C 17.4510000   15.1360000   14.6270000  
O 18.2020000   15.6580000   15.5110000  
O 11.7590000   13.5570000   18.7230000  
O 10.5400000   12.8080000   16.2400000  
H 12.2440000   13.2310000   14.2320000  
H 15.0880000   14.0780000   13.2600000  
H 16.9430000   14.4530000   13.0510000  
H 16.3640000   14.8780000   17.1820000  
H 12.2090000   13.9530000   19.4810000  
H 10.1790000   12.8740000   17.1490000  
C 14.2790000   14.8800000   18.9600000  
C 14.6160000   16.2470000   18.9820000  
C 15.1920000   16.8520000   20.1020000  
C 15.6710000   16.1160000   21.2170000  
C 15.4010000   14.7010000   21.1970000  
C 14.6850000   14.1040000   20.0690000  
C 14.3850000   17.3230000   18.0700000  
C 14.6910000   18.5370000   18.6970000  
N 15.2800000   18.1870000   19.9140000  
O 13.9650000   19.9220000   16.9480000  
C 14.4220000   19.9010000   18.1770000  
O 14.5910000   20.8830000   18.8270000  
O 15.7450000   13.9250000   22.2770000  
O 14.4480000   12.7010000   20.1340000  
H 13.9400000   17.3000000   17.0890000  
H 14.1030000   19.0330000   16.5910000  
H 15.6620000   18.8760000   20.5650000  
H 16.2440000   14.5250000   22.7700000  
H 14.0230000   12.4610000   19.2760000  
C 16.3100000   16.8250000   22.4110000  
C 15.5910000   17.0370000   23.6020000  
C 16.1530000   17.7020000   24.6380000  
C 17.5210000   18.1010000   24.7860000  
C 18.2680000   17.8750000   23.5800000  
C 17.6270000   17.2760000   22.4270000  
C 14.2910000   16.7040000   24.0540000  
C 14.0660000   17.2090000   25.3740000  
N 15.3030000   17.8450000   25.7340000  
O 11.7860000   16.5810000   25.7530000  
C 12.9040000   17.1860000   26.2290000  
O 13.0240000   17.6950000   27.3260000  
O 19.5970000   18.3080000   23.4040000  
O 18.3070000   17.0320000   21.2960000  
H 13.5170000   16.2600000   23.4390000  
H 12.1030000   16.1510000   24.9430000  
H 15.5560000   18.4460000   26.5590000  
H 19.9810000   18.7600000   24.2030000  
H 19.1940000   17.2090000   21.4760000  
C 18.1720000   18.9330000   25.8670000  
C 18.5640000   18.4320000   27.1600000  
C 19.0760000   19.2620000   28.1720000  
C 19.1430000   20.6110000   27.9740000  
C 18.8630000   21.0920000   26.6820000  
C 18.3500000   20.2940000   25.6410000  
C 18.3950000   17.0720000   27.7090000  
C 18.8650000   17.1450000   29.0060000  
N 19.3450000   18.4730000   29.2760000  
O 18.6700000   14.8730000   29.4400000  
C 19.0410000   16.0030000   29.9500000  
O 19.4980000   16.1150000   31.0790000  
O 18.8190000   22.4150000   26.4860000  
O 17.7580000   20.7790000   24.5200000  
H 18.0980000   16.2130000   27.1180000  
H 18.3990000   15.1360000   28.4980000  
H 19.7140000   18.8060000   30.1370000  
H 18.6530000   22.5580000   25.5050000  
H 18.2860000   20.4980000   23.7290000  
H 19.3950000   21.2710000   28.7800000  
