78
000 
C 12.1850000   16.9950000   28.0890000  
C 12.9680000   16.7100000   29.2260000  
C 14.2990000   16.4450000   29.0570000  
C 14.8160000   16.4530000   27.8340000  
C 14.1540000   16.9650000   26.6800000  
C 12.7570000   17.1270000   26.8080000  
C 15.3960000   16.3310000   29.9990000  
C 16.5520000   16.3280000   29.2810000  
N 16.2040000   16.4240000   27.8920000  
O 18.0710000   15.8080000   31.1330000  
C 17.9310000   16.1550000   29.8330000  
O 18.8640000   16.3580000   29.1150000  
O 11.9270000   17.3890000   25.7450000  
O 10.8330000   17.0850000   28.1910000  
H 12.5190000   16.7520000   30.2200000  
H 15.3310000   16.2390000   31.0390000  
H 17.1710000   15.7450000   31.5400000  
H 16.8130000   16.5680000   27.1060000  
H 12.5230000   17.5140000   24.9110000  
H 10.6080000   17.2430000   27.2580000  
C 14.8250000   17.2050000   25.3660000  
C 15.2010000   16.0970000   24.6650000  
C 15.8990000   16.1840000   23.4870000  
C 15.9920000   17.3740000   22.7250000  
C 15.5860000   18.5910000   23.4100000  
C 15.0400000   18.4620000   24.7380000  
C 14.9390000   14.6820000   24.9040000  
C 15.4570000   14.0500000   23.7330000  
N 16.1600000   14.9490000   22.9380000  
O 14.5020000   11.9660000   24.1810000  
C 15.4210000   12.5990000   23.4550000  
O 16.1160000   12.0020000   22.6770000  
O 15.6420000   19.8470000   22.8770000  
O 14.8000000   19.6380000   25.4080000  
H 14.3960000   14.1820000   25.7520000  
H 14.1630000   12.5650000   24.8100000  
H 16.7230000   14.7320000   22.1700000  
H 15.8890000   19.9180000   21.9270000  
H 14.9370000   19.4780000   26.3210000  
C 16.6150000   17.3820000   21.3470000  
C 16.2430000   16.4230000   20.3550000  
C 16.8290000   16.2950000   19.1490000  
C 17.8400000   17.1750000   18.6470000  
C 18.3630000   18.0940000   19.6410000  
C 17.8490000   18.0980000   20.9470000  
C 15.0470000   15.6910000   20.3150000  
C 15.0430000   14.9850000   19.1210000  
N 16.0800000   15.4780000   18.3420000  
O 12.8260000   14.1890000   19.3910000  
C 13.9340000   14.0960000   18.5850000  
O 13.9520000   13.5430000   17.5200000  
O 19.3550000   18.9330000   19.2380000  
O 18.3990000   19.0000000   21.8390000  
H 14.2360000   15.6520000   21.0330000  
H 12.9840000   14.9400000   20.0390000  
H 16.1360000   15.3310000   17.3290000  
H 19.4250000   18.6250000   18.3320000  
H 19.1160000   19.4350000   21.3000000  
C 18.2030000   17.3460000   17.2440000  
C 17.2520000   17.8360000   16.3500000  
C 17.5790000   18.1580000   15.0500000  
C 18.8670000   17.8850000   14.5650000  
C 19.8060000   17.2220000   15.4130000  
C 19.5440000   17.0920000   16.7990000  
C 15.8470000   18.1550000   16.4970000  
C 15.4710000   18.6750000   15.2940000  
N 16.4710000   18.5950000   14.3850000  
O 13.2020000   19.1940000   15.9690000  
C 14.1800000   19.2560000   14.9880000  
O 13.9810000   19.7770000   13.9050000  
O 20.9680000   16.7670000   14.8710000  
O 20.4760000   16.5420000   17.6620000  
H 15.2480000   18.0210000   17.3790000  
H 13.4930000   18.6450000   16.7130000  
H 16.4870000   18.8970000   13.4630000  
H 21.8230000   17.0680000   15.2170000  
H 20.1400000   16.3130000   18.5000000  
H 19.1710000   18.0540000   13.5640000  
