78
000 
C  9.0600000   18.6360000   18.9120000  
C  8.8610000   17.6390000   17.9630000  
C  9.7390000   16.5330000   17.9490000  
C 10.8570000   16.5170000   18.7660000  
C 11.1130000   17.5450000   19.7330000  
C 10.1910000   18.5930000   19.7780000  
C  9.8280000   15.3250000   17.2820000  
C 10.9320000   14.5560000   17.7810000  
N 11.5390000   15.2880000   18.7670000  
O 10.6050000   12.7810000   16.3850000  
C 11.1530000   13.1620000   17.5530000  
O 11.7440000   12.4390000   18.3500000  
O 10.2900000   19.5470000   20.7550000  
O  8.3000000   19.7700000   18.9750000  
H  8.0360000   17.5740000   17.2860000  
H  9.0080000   14.8730000   16.7250000  
H 10.3340000   13.5120000   15.9090000  
H 12.4980000   15.0680000   19.1790000  
H 11.1210000   19.3260000   21.2060000  
H  8.8590000   20.3280000   19.4910000  
C 12.3130000   17.5210000   20.6160000  
C 13.5960000   17.5850000   20.0820000  
C 14.6580000   17.2930000   20.9100000  
C 14.6360000   16.9330000   22.2550000  
C 13.2700000   16.7970000   22.7790000  
C 12.1000000   17.0840000   21.9640000  
C 14.1510000   17.8000000   18.7520000  
C 15.4890000   17.5320000   18.8750000  
N 15.8200000   17.2050000   20.1850000  
O 15.9580000   17.5720000   16.4440000  
C 16.4420000   17.4920000   17.7170000  
O 17.6110000   17.3110000   17.8720000  
O 13.1760000   16.3990000   24.0670000  
O 10.8360000   16.8740000   22.4090000  
H 13.6330000   18.2130000   17.8810000  
H 14.9720000   17.5760000   16.5000000  
H 16.7010000   17.0410000   20.5940000  
H 13.9360000   16.7560000   24.6460000  
H 10.2770000   17.2950000   21.7540000  
C 15.8840000   16.6430000   23.0380000  
C 16.8850000   17.6370000   23.1950000  
C 18.1390000   17.3890000   23.5970000  
C 18.6290000   16.1250000   23.7570000  
C 17.7040000   15.0870000   23.5820000  
C 16.3420000   15.3280000   23.2140000  
C 16.7830000   19.0590000   22.9930000  
C 17.9940000   19.6050000   23.3020000  
N 18.8630000   18.5450000   23.6300000  
O 17.4680000   21.8420000   23.0700000  
C 18.4430000   21.0140000   23.4250000  
O 19.5990000   21.3210000   23.8130000  
O 18.2710000   13.8910000   23.8170000  
O 15.5490000   14.2380000   22.7830000  
H 15.8860000   19.6010000   22.6810000  
H 16.7010000   21.3640000   22.7910000  
H 19.8140000   18.6780000   24.0660000  
H 19.2410000   14.0070000   23.7880000  
H 16.0790000   13.3820000   22.8490000  
C 20.1060000   15.8770000   23.8940000  
C 20.8420000   15.9310000   25.0620000  
C 22.1430000   15.6090000   25.2300000  
C 22.9400000   15.2700000   24.0970000  
C 22.3270000   15.2910000   22.8420000  
C 20.9090000   15.5510000   22.7890000  
C 20.3760000   16.1810000   26.4540000  
C 21.4560000   15.9910000   27.3560000  
N 22.5820000   15.7950000   26.5840000  
O 20.2270000   16.6350000   29.2520000  
C 21.4550000   16.2320000   28.8220000  
O 22.4390000   16.1450000   29.5120000  
O 23.0510000   14.7960000   21.7930000  
O 20.2670000   15.6170000   21.5750000  
H 19.3830000   16.4140000   26.7770000  
H 19.6670000   16.7310000   28.4530000  
H 23.5410000   15.9060000   26.8430000  
H 22.4700000   14.8080000   21.0170000  
H 19.4030000   15.9750000   21.7060000  
H 23.9760000   14.9350000   24.2620000  
