78
000 
C 20.0590000   11.3960000   24.7030000  
C 20.2100000   11.6590000   26.0620000  
C 19.8450000   12.9240000   26.4890000  
C 19.2860000   13.8640000   25.6780000  
C 19.0520000   13.6570000   24.2480000  
C 19.4370000   12.3730000   23.8110000  
C 19.8920000   13.4580000   27.8470000  
C 19.3630000   14.7660000   27.7970000  
N 18.9400000   15.0030000   26.4130000  
O 19.3680000   15.0570000   30.0950000  
C 19.0870000   15.6540000   28.9830000  
O 18.4830000   16.7330000   28.8710000  
O 19.1810000   12.1540000   22.4400000  
O 20.4480000   10.1730000   24.2180000  
H 20.6560000   10.9060000   26.6710000  
H 20.1700000   12.9080000   28.8080000  
H 19.8740000   14.2700000   29.8130000  
H 18.5030000   15.8840000   26.1240000  
H 18.6300000   12.8520000   22.1080000  
H 20.6070000   10.1520000   23.2470000  
C 18.2020000   14.5370000   23.3550000  
C 18.8310000   15.3050000   22.3870000  
C 18.1690000   16.0940000   21.5610000  
C 16.8140000   16.3820000   21.6850000  
C 16.1760000   15.8100000   22.8300000  
C 16.8510000   14.8350000   23.6320000  
C 20.2300000   15.2620000   21.9120000  
C 20.3270000   16.1340000   20.8450000  
N 19.0350000   16.6690000   20.6030000  
O 22.6680000   15.9480000   20.4500000  
C 21.4760000   16.4970000   20.0670000  
O 21.3590000   17.2580000   19.1590000  
O 14.8760000   16.1040000   23.2090000  
O 16.1940000   14.1100000   24.6080000  
H 21.0740000   14.7710000   22.4580000  
H 22.5210000   15.2730000   21.0600000  
H 18.8470000   17.4770000   20.0040000  
H 14.5860000   16.5960000   22.5400000  
H 16.7780000   13.5510000   25.1680000  
C 16.0190000   17.3060000   20.8010000  
C 14.8200000   16.9170000   20.1650000  
C 13.9460000   17.8140000   19.6620000  
C 14.2390000   19.2150000   19.4540000  
C 15.5430000   19.5840000   19.9180000  
C 16.3920000   18.6670000   20.6580000  
C 14.2120000   15.5780000   20.0250000  
C 13.1350000   15.7840000   19.2120000  
N 12.8760000   17.1520000   19.0480000  
O 12.5980000   13.4140000   18.8570000  
C 12.2970000   14.6700000   18.6060000  
O 11.3200000   14.9420000   17.9100000  
O 15.9040000   20.8930000   19.8920000  
O 17.4750000   19.1410000   21.3340000  
H 14.4900000   14.6090000   20.4530000  
H 13.3740000   13.3190000   19.3590000  
H 12.0680000   17.5900000   18.5890000  
H 15.1060000   21.4540000   19.8260000  
H 17.2860000   20.1460000   21.3300000  
C 13.1210000   20.1810000   19.1290000  
C 12.0090000   20.2770000   19.9540000  
C 10.9330000   21.0560000   19.5350000  
C 10.8580000   21.8080000   18.3410000  
C 12.0370000   21.7710000   17.5430000  
C 13.1480000   20.9310000   17.9130000  
C 11.5890000   19.4730000   21.0750000  
C 10.2850000   19.8810000   21.3150000  
N  9.8880000   20.8480000   20.3640000  
O 10.0340000   18.5430000   23.3630000  
C  9.4820000   19.3600000   22.4050000  
O  8.3640000   19.7130000   22.4790000  
O 12.1580000   22.5410000   16.3910000  
O 14.2350000   20.8640000   17.0640000  
H 12.2470000   18.8850000   21.6490000  
H 10.8910000   18.2230000   23.0450000  
H  8.9990000   21.3100000   20.2560000  
H 12.8060000   22.0630000   15.8900000  
H 14.9540000   20.3270000   17.4790000  
H 10.0460000   22.3340000   17.9040000  
