78
001 
C 14.5770000   14.5140000   15.3220000  
C 15.5520000   15.0380000   14.3890000  
C 16.3920000   16.0920000   14.8630000  
C 16.3150000   16.5210000   16.1360000  
C 15.3990000   16.0380000   17.1400000  
C 14.5110000   15.0100000   16.6270000  
C 17.4670000   16.8770000   14.1900000  
C 17.9620000   17.7680000   15.1490000  
N 17.1790000   17.6170000   16.2900000  
O 19.7630000   18.7770000   13.8480000  
C 19.1010000   18.6920000   15.0820000  
O 19.4830000   19.3150000   16.0670000  
O 13.5940000   14.4710000   17.4320000  
O 13.7150000   13.5630000   14.8970000  
H 15.4700000   14.7220000   13.3830000  
H 17.9620000   16.6470000   13.2290000  
H 19.2160000   18.2260000   13.3190000  
H 17.4200000   18.0500000   17.2090000  
H 13.8020000   14.8190000   18.3180000  
H 13.4310000   13.1010000   15.7450000  
C 15.3730000   16.6210000   18.5670000  
C 14.9430000   17.9400000   18.8030000  
C 15.1160000   18.4950000   20.0660000  
C 15.5830000   17.8070000   21.2010000  
C 15.9920000   16.4730000   20.9450000  
C 15.8630000   15.8660000   19.6370000  
C 14.2870000   18.9600000   17.9720000  
C 14.1540000   20.0950000   18.7530000  
N 14.7010000   19.8190000   20.0060000  
O 13.4730000   21.5690000   16.9990000  
C 13.6560000   21.4150000   18.3460000  
O 13.6320000   22.4470000   19.0580000  
O 16.7500000   15.8470000   21.9580000  
O 16.3280000   14.6390000   19.4230000  
H 14.0630000   18.9520000   16.8820000  
H 13.7040000   20.7440000   16.6060000  
H 15.1840000   20.5190000   20.6450000  
H 16.7930000   16.3000000   22.8530000  
H 16.6030000   14.3140000   20.3390000  
C 15.7180000   18.5390000   22.4900000  
C 14.5860000   18.8510000   23.2680000  
C 14.6410000   19.5240000   24.4190000  
C 15.8320000   20.0340000   24.9630000  
C 17.0230000   19.8620000   24.1740000  
C 16.9950000   19.1420000   22.9590000  
C 13.1580000   18.5470000   23.1290000  
C 12.5160000   19.1410000   24.1760000  
N 13.4710000   19.6660000   25.0820000  
O 10.2130000   18.9070000   23.3630000  
C 11.0550000   19.5420000   24.1820000  
O 10.6610000   20.4790000   24.9160000  
O 18.2090000   20.3470000   24.5310000  
O 18.0790000   19.1640000   22.1660000  
H 12.6100000   18.1110000   22.2960000  
H 10.8220000   18.2750000   22.8850000  
H 13.2190000   20.2140000   25.8940000  
H 18.0830000   20.4610000   25.4980000  
H 18.7650000   19.4210000   22.7320000  
C 15.8700000   20.8320000   26.2410000  
C 16.4280000   20.4040000   27.4140000  
C 16.6660000   21.1690000   28.5330000  
C 16.2650000   22.5100000   28.6310000  
C 15.6220000   23.0170000   27.4670000  
C 15.5720000   22.2110000   26.2560000  
C 16.8840000   19.0650000   27.7510000  
C 17.4260000   19.1250000   29.0580000  
N 17.3090000   20.4240000   29.4560000  
O 18.5800000   17.0200000   29.1340000  
C 18.1700000   18.1010000   29.8670000  
O 18.3930000   18.2350000   31.0590000  
O 15.0610000   24.2140000   27.6190000  
O 15.2730000   22.8080000   25.0750000  
H 16.8570000   18.1580000   27.1910000  
H 18.1110000   17.1560000   28.2750000  
H 17.6270000   20.7110000   30.3330000  
H 14.8980000   24.3150000   28.5880000  
H 14.9810000   23.6710000   25.3990000  
H 16.2870000   22.9860000   29.5900000  
