78
001 
C  8.5830000   20.6400000   24.1420000  
C  8.7920000   21.6400000   25.0970000  
C 10.1150000   22.0480000   25.2820000  
C 11.1730000   21.6210000   24.4950000  
C 11.0280000   20.5990000   23.5330000  
C  9.6790000   20.1580000   23.2980000  
C 10.7620000   22.8600000   26.2670000  
C 12.1180000   22.8800000   26.0370000  
N 12.3740000   22.1810000   24.8770000  
O 12.6480000   24.1160000   28.0710000  
C 13.1450000   23.5100000   26.9380000  
O 14.3710000   23.4840000   26.6520000  
O  9.4890000   19.2420000   22.3030000  
O  7.2980000   20.2520000   23.8730000  
H  8.0280000   21.9870000   25.8060000  
H 10.1560000   23.3650000   27.0020000  
H 11.6620000   24.0270000   28.2430000  
H 13.2770000   21.8270000   24.5320000  
H 10.3590000   19.0110000   21.9680000  
H  7.1740000   19.8990000   22.9940000  
C 12.2190000   20.1460000   22.8160000  
C 13.2440000   19.5980000   23.5480000  
C 14.4540000   19.1890000   22.9870000  
C 14.7280000   19.3660000   21.6150000  
C 13.7020000   19.9270000   20.8430000  
C 12.4630000   20.2770000   21.4180000  
C 13.4110000   19.3670000   24.9990000  
C 14.7730000   18.9940000   25.1640000  
N 15.3870000   18.8010000   23.8960000  
O 14.5910000   19.1550000   27.5640000  
C 15.4740000   18.9240000   26.4820000  
O 16.6720000   18.6660000   26.6460000  
O 13.9090000   20.1590000   19.5440000  
O 11.5180000   20.8180000   20.5990000  
H 12.5800000   19.5300000   25.7270000  
H 13.7000000   19.3960000   27.2210000  
H 16.3240000   18.5890000   23.7660000  
H 14.7490000   19.7450000   19.3010000  
H 11.9890000   20.6970000   19.7620000  
C 16.0410000   18.9620000   21.0290000  
C 16.3350000   17.5560000   20.7920000  
C 17.6270000   17.2250000   20.3710000  
C 18.5830000   18.1630000   19.8840000  
C 18.2200000   19.5490000   19.9000000  
C 16.9730000   19.9300000   20.4760000  
C 15.5960000   16.3730000   21.1510000  
C 16.4960000   15.3400000   20.8040000  
N 17.7430000   15.8500000   20.4590000  
O 15.1460000   13.4860000   21.4690000  
C 16.3060000   13.8590000   20.9950000  
O 17.1940000   13.0120000   20.6850000  
O 19.0710000   20.4780000   19.3580000  
O 16.6450000   21.2330000   20.3830000  
H 14.5780000   16.3010000   21.5380000  
H 14.6850000   14.3050000   21.7400000  
H 18.5390000   15.3820000   20.1430000  
H 19.9270000   19.9960000   19.1260000  
H 17.3840000   21.8230000   20.1960000  
C 19.8680000   17.5900000   19.3770000  
C 20.0690000   16.6130000   18.3780000  
C 21.2880000   16.1020000   18.0800000  
C 22.4950000   16.5910000   18.5800000  
C 22.3280000   17.4610000   19.6720000  
C 21.0600000   18.0230000   20.0330000  
C 19.1710000   16.1230000   17.3960000  
C 19.9540000   15.4250000   16.4670000  
N 21.2300000   15.3110000   17.0070000  
O 18.2750000   15.1940000   14.6720000  
C 19.5240000   14.8890000   15.0580000  
O 20.2200000   14.3270000   14.2880000  
O 23.4460000   17.9010000   20.3340000  
O 21.0060000   18.8730000   21.1510000  
H 18.1250000   16.3740000   17.2580000  
H 17.7580000   15.3770000   15.4300000  
H 22.0480000   14.9290000   16.5710000  
H 24.2820000   17.4090000   19.9840000  
H 21.9240000   19.1500000   21.4390000  
H 23.4470000   16.3750000   18.1600000  
