78
001 
C  8.5920000   19.3790000   19.2700000  
C  8.1870000   20.7020000   19.2570000  
C  9.1010000   21.6700000   19.6590000  
C 10.3800000   21.3130000   20.0780000  
C 10.9020000   20.0170000   20.0810000  
C  9.9650000   19.0280000   19.6640000  
C  9.0040000   23.1420000   19.6750000  
C 10.2950000   23.5410000   20.1550000  
N 11.0700000   22.4760000   20.4210000  
O  9.7520000   25.8190000   20.0870000  
C 10.7380000   24.9510000   20.1780000  
O 11.9110000   25.2060000   20.3950000  
O 10.2850000   17.6570000   19.6120000  
O  7.7130000   18.3410000   19.1800000  
H  7.2260000   21.0190000   18.9930000  
H  8.2770000   23.7720000   19.1230000  
H  9.0030000   25.2490000   19.8990000  
H 12.0730000   22.6170000   20.6870000  
H 11.1920000   17.5420000   19.8310000  
H  8.2980000   17.6650000   19.5610000  
C 12.3360000   19.7410000   20.3420000  
C 12.9180000   19.8380000   21.6140000  
C 14.1900000   19.3330000   21.9070000  
C 15.0890000   18.8500000   20.9720000  
C 14.5210000   18.6750000   19.6620000  
C 13.1580000   19.0710000   19.4050000  
C 12.4070000   20.3660000   22.8470000  
C 13.4490000   20.2260000   23.7610000  
N 14.4870000   19.6170000   23.1940000  
O 12.2010000   21.2000000   25.5990000  
C 13.2720000   20.4540000   25.1970000  
O 14.0810000   20.1210000   26.0130000  
O 15.2500000   17.9730000   18.7190000  
O 12.5970000   18.7710000   18.2020000  
H 11.4590000   20.7720000   23.1240000  
H 11.6500000   21.3570000   24.7940000  
H 15.3920000   19.3830000   23.6290000  
H 15.8340000   17.3700000   19.1900000  
H 13.2780000   18.2690000   17.7710000  
C 16.4310000   18.3950000   21.4080000  
C 16.6060000   17.3320000   22.3240000  
C 17.8290000   17.1250000   22.9180000  
C 19.0100000   17.7930000   22.5600000  
C 18.8700000   18.7860000   21.5270000  
C 17.5720000   19.1820000   21.0400000  
C 15.7570000   16.3320000   22.8330000  
C 16.4610000   15.5860000   23.7150000  
N 17.7660000   16.0910000   23.8970000  
O 14.5550000   14.1430000   24.3190000  
C 15.8980000   14.4920000   24.5800000  
O 16.6050000   13.9120000   25.4020000  
O 19.9070000   19.6240000   21.1050000  
O 17.5110000   20.3490000   20.3260000  
H 14.7610000   16.1850000   22.5830000  
H 14.4430000   14.5890000   23.4840000  
H 18.4320000   15.9940000   24.6340000  
H 20.6560000   19.3020000   21.5990000  
H 18.4010000   20.6880000   20.2060000  
C 20.3390000   17.4820000   23.1200000  
C 21.3100000   16.8340000   22.3390000  
C 22.5490000   16.5710000   22.8050000  
C 22.8940000   16.8880000   24.1470000  
C 21.9130000   17.4000000   25.0370000  
C 20.5940000   17.6110000   24.5320000  
C 21.2490000   16.3870000   20.9500000  
C 22.5240000   16.0040000   20.6410000  
N 23.2780000   16.0280000   21.8350000  
O 22.2210000   15.8440000   18.1790000  
C 22.9890000   15.5220000   19.2670000  
O 24.0480000   14.9830000   19.0530000  
O 22.1880000   17.7870000   26.3100000  
O 19.6200000   18.1130000   25.3960000  
H 20.4090000   16.4250000   20.2130000  
H 21.3620000   16.2610000   18.4650000  
H 24.2590000   15.7880000   21.9650000  
H 23.1350000   18.0150000   26.2920000  
H 20.0780000   18.4620000   26.2000000  
H 23.8500000   16.6290000   24.5600000  
