78
001 
C 16.1230000   17.3070000   29.3250000  
C 17.4360000   16.8650000   29.5200000  
C 18.3140000   16.8190000   28.3980000  
C 17.9130000   17.3340000   27.2110000  
C 16.6090000   17.8290000   26.9220000  
C 15.7020000   17.8090000   28.0560000  
C 19.6460000   16.2790000   28.2540000  
C 20.0240000   16.6440000   27.0060000  
N 18.9490000   17.1930000   26.3200000  
O 22.2580000   15.9320000   27.3130000  
C 21.3940000   16.4280000   26.4690000  
O 21.7970000   16.6960000   25.3820000  
O 14.3970000   18.1940000   28.0180000  
O 15.1330000   17.1860000   30.3250000  
H 17.7500000   16.3280000   30.3900000  
H 20.2080000   15.7600000   28.9720000  
H 21.6380000   15.6710000   28.0770000  
H 18.9530000   17.2680000   25.3030000  
H 14.3380000   18.4710000   27.1070000  
H 14.2860000   17.4740000   29.9080000  
C 16.2750000   18.2750000   25.5140000  
C 16.5130000   17.4580000   24.3840000  
C 16.1430000   17.8580000   23.1270000  
C 15.5510000   19.0570000   22.8080000  
C 15.3190000   19.8960000   23.8930000  
C 15.7130000   19.5250000   25.2640000  
C 17.0230000   16.0970000   24.1830000  
C 16.8050000   15.7550000   22.8090000  
N 16.3880000   16.9010000   22.1140000  
O 17.5030000   13.4470000   22.9960000  
C 17.0150000   14.4160000   22.2020000  
O 16.9270000   14.3040000   20.9930000  
O 14.7670000   21.1050000   23.6380000  
O 15.4860000   20.3630000   26.2840000  
H 17.2930000   15.3710000   24.9690000  
H 17.5210000   13.8730000   23.8310000  
H 16.4410000   17.0560000   21.1590000  
H 14.7010000   21.0720000   22.6550000  
H 15.1690000   21.1960000   25.9060000  
C 15.3380000   19.5570000   21.3810000  
C 14.0540000   19.5110000   20.7610000  
C 14.0000000   19.7110000   19.3940000  
C 15.1460000   19.8050000   18.5030000  
C 16.4080000   19.8580000   19.1410000  
C 16.4690000   19.7820000   20.5740000  
C 12.7590000   19.2220000   21.2390000  
C 11.8870000   19.2460000   20.1230000  
N 12.6360000   19.5320000   18.9130000  
O 10.0610000   18.4700000   21.3650000  
C 10.4630000   18.7320000   20.1000000  
O  9.7230000   18.5790000   19.1860000  
O 17.5750000   19.9960000   18.4320000  
O 17.6970000   19.8210000   21.2090000  
H 12.4920000   19.1680000   22.2880000  
H 10.8630000   18.5080000   21.8680000  
H 12.2450000   19.3700000   17.9840000  
H 17.4240000   20.2300000   17.4790000  
H 18.4060000   20.1210000   20.5930000  
C 15.1300000   19.8920000   17.0370000  
C 14.4910000   20.9370000   16.3830000  
C 14.4250000   21.0060000   15.0090000  
C 14.9190000   20.0520000   14.1350000  
C 15.4790000   18.9160000   14.7570000  
C 15.5310000   18.8070000   16.1730000  
C 13.7500000   22.1430000   16.8280000  
C 13.2990000   22.8020000   15.7430000  
N 13.7390000   22.1350000   14.6550000  
O 12.6180000   24.6860000   16.8960000  
C 12.6390000   24.1040000   15.7040000  
O 12.2240000   24.6610000   14.7150000  
O 15.7440000   17.7810000   14.0230000  
O 15.8460000   17.6310000   16.7130000  
H 13.6930000   22.4720000   17.8400000  
H 12.9240000   24.0020000   17.4710000  
H 13.4580000   22.3750000   13.7080000  
H 15.4420000   18.0020000   13.1340000  
H 15.9930000   17.0080000   16.0330000  
H 14.7640000   20.2160000   13.1180000  
