78
001 
C 11.9630000   22.6310000   26.9330000  
C 10.5680000   22.4180000   26.8510000  
C 10.0980000   21.5140000   25.8820000  
C 10.9900000   20.8550000   25.0890000  
C 12.3780000   21.0000000   25.1860000  
C 12.8660000   21.9220000   26.1180000  
C  8.7480000   21.2390000   25.3740000  
C  9.0170000   20.3330000   24.3440000  
N 10.3470000   20.0940000   24.2240000  
O  6.7670000   19.8620000   24.0640000  
C  7.9890000   19.6170000   23.6110000  
O  8.1120000   18.8180000   22.7130000  
O 14.2070000   22.0910000   26.2940000  
O 12.4490000   23.5900000   27.7610000  
H  9.8290000   23.0820000   27.3680000  
H  7.7720000   21.4600000   25.8160000  
H  7.0170000   20.4260000   24.8370000  
H 10.7030000   19.4350000   23.5470000  
H 14.7210000   21.3390000   25.8880000  
H 13.4060000   23.6570000   27.6920000  
C 13.3280000   20.1600000   24.3250000  
C 13.4780000   20.3170000   22.9130000  
C 14.3060000   19.5040000   22.1790000  
C 15.1490000   18.4700000   22.7690000  
C 15.0600000   18.4000000   24.1570000  
C 14.1930000   19.2080000   24.9150000  
C 12.6930000   21.0990000   21.9220000  
C 13.1060000   20.6540000   20.6590000  
N 14.2110000   19.7720000   20.8220000  
O 11.4340000   21.8120000   19.4480000  
C 12.5200000   20.9410000   19.3600000  
O 12.9240000   20.4870000   18.3130000  
O 15.9540000   17.6540000   24.8190000  
O 14.2780000   19.1050000   26.2700000  
H 11.9370000   21.8890000   22.1090000  
H 11.2540000   21.9260000   20.4280000  
H 14.5510000   19.2080000   20.0140000  
H 16.0800000   16.9040000   24.2110000  
H 14.8230000   18.3690000   26.5900000  
C 16.1780000   17.6900000   21.9800000  
C 16.9090000   18.3520000   20.9730000  
C 17.6380000   17.6640000   20.0820000  
C 17.8980000   16.2710000   20.1450000  
C 17.1470000   15.5940000   21.0890000  
C 16.2370000   16.2480000   21.9950000  
C 17.1130000   19.7600000   20.6480000  
C 18.0410000   19.7770000   19.5620000  
N 18.3740000   18.4490000   19.2230000  
O 18.1380000   22.1760000   19.0820000  
C 18.5680000   20.9230000   18.8060000  
O 19.4040000   20.7490000   17.9450000  
O 17.3510000   14.2590000   21.1360000  
O 15.4800000   15.5110000   22.8590000  
H 16.7510000   20.5710000   21.1570000  
H 17.5820000   22.0980000   19.8830000  
H 18.9030000   18.0850000   18.4400000  
H 18.0290000   14.0370000   20.4130000  
H 15.3930000   14.5780000   22.6540000  
C 18.9290000   15.6770000   19.1790000  
C 20.2890000   16.0340000   19.3100000  
C 21.2260000   15.5950000   18.4370000  
C 20.9320000   14.7910000   17.3260000  
C 19.5730000   14.3440000   17.1400000  
C 18.6230000   14.7810000   18.1030000  
C 21.0890000   16.7570000   20.2970000  
C 22.3720000   16.9660000   19.8240000  
N 22.4620000   16.1260000   18.7000000  
O 22.8680000   18.4540000   21.6390000  
C 23.3950000   17.7930000   20.5360000  
O 24.5750000   17.7980000   20.2720000  
O 19.2270000   13.6240000   16.0680000  
O 17.3390000   14.3980000   18.0710000  
H 20.6900000   17.2360000   21.2310000  
H 22.0060000   18.1480000   21.7870000  
H 23.3470000   15.8970000   18.1720000  
H 19.8630000   13.6070000   15.4130000  
H 17.2540000   13.7000000   17.4330000  
H 21.7200000   14.5070000   16.5890000  
