78
001 
C 14.7650000   18.2710000   29.0850000  
C 15.9600000   18.0630000   29.8680000  
C 17.1160000   17.9950000   29.0980000  
C 17.0720000   18.2220000   27.7140000  
C 15.9570000   18.3180000   26.9340000  
C 14.7630000   18.5020000   27.6800000  
C 18.5670000   17.8970000   29.3820000  
C 19.2080000   17.9850000   28.1650000  
N 18.2670000   18.1410000   27.1120000  
O 21.4550000   17.7600000   28.9750000  
C 20.6320000   17.9340000   27.8920000  
O 21.1080000   17.9700000   26.7800000  
O 13.5840000   18.6000000   26.8610000  
O 13.6050000   18.2530000   29.8040000  
H 15.9610000   17.7380000   30.8830000  
H 18.9730000   18.0040000   30.3330000  
H 20.8930000   18.0780000   29.7620000  
H 18.5050000   18.3690000   26.1510000  
H 13.8030000   18.1480000   26.0300000  
H 12.8390000   18.4090000   29.2080000  
C 15.9490000   18.4280000   25.3980000  
C 15.9610000   17.3140000   24.5650000  
C 15.9820000   17.4660000   23.2310000  
C 16.1120000   18.7050000   22.5060000  
C 16.1070000   19.8190000   23.3870000  
C 16.0740000   19.7030000   24.8080000  
C 15.7340000   15.8810000   24.7870000  
C 15.7820000   15.2490000   23.5470000  
N 15.9430000   16.2110000   22.5790000  
O 15.3410000   13.0700000   24.4220000  
C 15.5920000   13.8440000   23.3010000  
O 15.5430000   13.2950000   22.2110000  
O 16.1820000   21.1070000   22.9490000  
O 16.1340000   20.8530000   25.5830000  
H 15.4950000   15.4240000   25.7370000  
H 15.2520000   13.7510000   25.0510000  
H 15.8180000   16.1830000   21.5650000  
H 16.4080000   21.0920000   21.9930000  
H 16.3270000   21.6420000   25.0210000  
C 16.1750000   18.8640000   21.0330000  
C 15.0390000   18.5810000   20.2830000  
C 14.9520000   18.8780000   18.9540000  
C 15.9670000   19.4240000   18.1220000  
C 17.1020000   19.6750000   18.8800000  
C 17.2460000   19.4610000   20.2860000  
C 13.7020000   18.1590000   20.6620000  
C 12.9540000   18.0920000   19.4990000  
N 13.7050000   18.5470000   18.4480000  
O 10.9320000   17.1060000   20.3480000  
C 11.6170000   17.5770000   19.2850000  
O 11.0950000   17.7120000   18.1920000  
O 18.1230000   20.3100000   18.2700000  
O 18.4480000   19.6610000   20.9090000  
H 13.3720000   17.8350000   21.6330000  
H 11.5730000   16.8710000   21.0010000  
H 13.4310000   18.4510000   17.4850000  
H 17.8450000   20.5080000   17.3330000  
H 19.0300000   20.1620000   20.2960000  
C 15.8490000   19.7280000   16.6610000  
C 14.9450000   20.6580000   16.1560000  
C 14.8380000   20.9510000   14.7730000  
C 15.6800000   20.4110000   13.7850000  
C 16.5900000   19.4350000   14.3090000  
C 16.6150000   19.0430000   15.6870000  
C 13.8770000   21.4610000   16.7920000  
C 13.2520000   22.2660000   15.8120000  
N 13.8200000   21.8530000   14.5790000  
O 11.5130000   23.2390000   17.1350000  
C 12.1230000   23.2470000   15.9710000  
O 11.5410000   23.8020000   14.9780000  
O 17.4790000   18.8080000   13.4260000  
O 17.5740000   18.1690000   16.0700000  
H 13.6520000   21.4400000   17.8800000  
H 12.1360000   22.6550000   17.6090000  
H 13.6790000   22.3360000   13.6710000  
H 17.0160000   18.5820000   12.6060000  
H 17.8630000   17.6520000   15.3570000  
H 15.5860000   20.7210000   12.7210000  
