78
001 
C 21.2770000   13.8110000   23.5020000  
C 21.7040000   13.4250000   22.1880000  
C 21.1410000   14.0970000   21.1290000  
C 20.1880000   15.0750000   21.3240000  
C 19.6770000   15.4720000   22.5840000  
C 20.3440000   14.8300000   23.6660000  
C 21.4100000   13.9070000   19.7120000  
C 20.6320000   14.9080000   19.0990000  
N 19.9150000   15.6250000   20.1230000  
O 21.1200000   14.2620000   16.8720000  
C 20.4500000   15.0850000   17.6380000  
O 19.8450000   16.0200000   17.1700000  
O 19.8460000   15.2610000   24.8660000  
O 21.6720000   13.1690000   24.6330000  
H 22.5020000   12.7440000   22.1050000  
H 21.9030000   13.0610000   19.2130000  
H 21.5780000   13.5950000   17.4140000  
H 19.3020000   16.3560000   19.8520000  
H 19.1750000   16.0130000   24.6440000  
H 21.0270000   13.2790000   25.3420000  
C 18.5880000   16.4390000   22.7630000  
C 17.3040000   16.1660000   22.3410000  
C 16.3510000   17.1630000   22.1810000  
C 16.6030000   18.5260000   22.3780000  
C 17.9290000   18.8200000   22.8380000  
C 18.8600000   17.7920000   23.0650000  
C 16.6950000   14.9730000   21.9030000  
C 15.4330000   15.2690000   21.4860000  
N 15.1800000   16.6490000   21.6600000  
O 14.8250000   13.0710000   21.0500000  
C 14.4090000   14.3560000   21.0300000  
O 13.3110000   14.6710000   20.5070000  
O 18.2840000   20.0510000   23.2020000  
O 20.1120000   18.1410000   23.2750000  
H 17.2000000   14.0040000   21.6660000  
H 15.7190000   13.0210000   21.4710000  
H 14.3460000   17.1460000   21.3870000  
H 17.6720000   20.6780000   22.7290000  
H 20.2600000   19.0500000   23.6210000  
C 15.5920000   19.4880000   22.1000000  
C 14.4690000   19.5350000   22.9170000  
C 13.3710000   20.2840000   22.6480000  
C 13.2360000   21.1100000   21.4790000  
C 14.4080000   21.1680000   20.6620000  
C 15.6160000   20.4150000   20.9720000  
C 14.2410000   18.9530000   24.1990000  
C 12.9560000   19.2980000   24.6340000  
N 12.4040000   20.1040000   23.6060000  
O 12.7700000   18.1490000   26.7880000  
C 12.1660000   18.9470000   25.8750000  
O 11.0630000   19.3520000   26.0410000  
O 14.3840000   22.0150000   19.6190000  
O 16.7900000   20.5310000   20.2290000  
H 14.7670000   18.1420000   24.6460000  
H 13.7380000   18.1380000   26.4950000  
H 11.4850000   20.5400000   23.5630000  
H 13.3990000   22.2980000   19.4440000  
H 16.5950000   21.0100000   19.3910000  
C 11.9960000   21.8680000   21.2310000  
C 12.0050000   23.3040000   21.0280000  
C 10.8800000   23.9540000   20.7610000  
C  9.6180000   23.3310000   20.6610000  
C  9.5660000   21.9780000   20.9040000  
C 10.7460000   21.2150000   21.0450000  
C 13.0930000   24.3120000   21.1380000  
C 12.5010000   25.5000000   20.7570000  
N 11.1210000   25.3320000   20.6730000  
O 14.5800000   26.7460000   20.7310000  
C 13.2030000   26.7820000   20.5590000  
O 12.5880000   27.7480000   20.1990000  
O  8.3780000   21.2870000   20.7610000  
O 10.6640000   19.8340000   21.0610000  
H 14.1270000   24.0840000   21.2940000  
H 14.7680000   25.8650000   21.1370000  
H 10.5280000   26.0770000   20.5030000  
H  7.6880000   21.8900000   20.4110000  
H  9.7510000   19.6160000   21.0410000  
H  8.7090000   23.9580000   20.5230000  
