78
001 
C 10.9320000   20.2280000   27.2190000  
C 11.5640000   20.2520000   28.4540000  
C 12.9910000   20.2740000   28.4670000  
C 13.6760000   20.2410000   27.2920000  
C 13.0630000   20.1400000   26.0730000  
C 11.6570000   20.1160000   26.0180000  
C 13.9590000   20.4330000   29.4930000  
C 15.2130000   20.5010000   28.9450000  
N 15.0380000   20.3630000   27.5100000  
O 16.3540000   20.8930000   30.9740000  
C 16.5160000   20.6990000   29.6270000  
O 17.5880000   20.6660000   29.0150000  
O 10.9570000   19.9560000   24.8330000  
O  9.5750000   20.2280000   27.2820000  
H 11.0280000   20.2830000   29.3890000  
H 13.7690000   20.4760000   30.5400000  
H 15.4050000   20.6570000   31.0800000  
H 15.8420000   20.2430000   26.9040000  
H 11.5280000   19.6860000   24.0700000  
H  9.2680000   20.6900000   26.5090000  
C 13.9220000   20.0440000   24.8020000  
C 14.8260000   18.9230000   24.5820000  
C 15.4610000   18.8180000   23.4170000  
C 15.2450000   19.5630000   22.2750000  
C 14.3520000   20.6590000   22.4120000  
C 13.7380000   20.9150000   23.6670000  
C 14.9870000   17.6550000   25.2350000  
C 15.8280000   16.8790000   24.4770000  
N 16.1980000   17.6270000   23.3510000  
O 15.8380000   14.9220000   25.7990000  
C 16.2140000   15.4210000   24.6500000  
O 16.8260000   14.7520000   23.7940000  
O 14.2020000   21.4590000   21.3390000  
O 13.0030000   22.0550000   23.8210000  
H 14.5340000   17.3790000   26.1800000  
H 15.2470000   15.4800000   26.2690000  
H 16.7890000   17.3080000   22.6330000  
H 15.0440000   21.2980000   20.8870000  
H 12.8240000   22.2630000   22.8860000  
C 16.0780000   19.2320000   21.0040000  
C 16.0570000   17.9510000   20.4160000  
C 16.7890000   17.6300000   19.2900000  
C 17.6780000   18.5120000   18.6590000  
C 17.7510000   19.8050000   19.2480000  
C 16.9240000   20.1730000   20.3630000  
C 15.1260000   16.8820000   20.6550000  
C 15.4200000   15.9340000   19.6400000  
N 16.3980000   16.3760000   18.7640000  
O 13.7470000   14.3810000   20.2870000  
C 14.7210000   14.6670000   19.3580000  
O 14.9480000   13.8890000   18.3830000  
O 18.6280000   20.7310000   18.7190000  
O 17.0470000   21.4210000   20.9600000  
H 14.2160000   16.9450000   21.2710000  
H 13.8760000   15.1050000   20.9570000  
H 16.7230000   15.9910000   17.8540000  
H 19.2110000   20.2980000   18.0380000  
H 17.9270000   21.6570000   20.5890000  
C 18.3760000   18.2080000   17.3670000  
C 17.8140000   18.5700000   16.1470000  
C 18.3600000   18.2980000   14.9170000  
C 19.5460000   17.5590000   14.8030000  
C 20.1810000   17.2570000   16.0740000  
C 19.6290000   17.5580000   17.3390000  
C 16.5240000   19.2000000   15.9780000  
C 16.3750000   19.3790000   14.5780000  
N 17.4530000   18.6850000   13.9350000  
O 14.2150000   20.3130000   14.8310000  
C 15.1110000   19.8550000   13.9140000  
O 14.8270000   19.7200000   12.7500000  
O 21.3360000   16.5320000   15.9700000  
O 20.1920000   17.0820000   18.5370000  
H 15.7680000   19.5060000   16.7710000  
H 14.6910000   20.3190000   15.6360000  
H 17.5770000   18.6670000   12.9250000  
H 21.2910000   15.9880000   15.1780000  
H 21.0690000   16.6410000   18.3470000  
H 19.9560000   17.2570000   13.8400000  
