78
001 
C 14.0680000   20.9510000   28.4360000  
C 12.7110000   20.8930000   28.7750000  
C 11.8360000   20.3910000   27.8150000  
C 12.3080000   19.8730000   26.6850000  
C 13.6290000   19.8950000   26.2760000  
C 14.5460000   20.4430000   27.2560000  
C 10.4050000   20.1360000   27.9140000  
C 10.1300000   19.4240000   26.7630000  
N 11.3240000   19.2130000   26.0390000  
O  7.7710000   19.3740000   27.1300000  
C  8.7910000   19.0350000   26.3000000  
O  8.6470000   18.4600000   25.2040000  
O 15.8430000   20.5240000   26.9500000  
O 14.9600000   21.3090000   29.3980000  
H 12.3200000   21.1390000   29.6660000  
H  9.7210000   20.5450000   28.6720000  
H  8.1810000   19.5160000   28.0090000  
H 11.4690000   18.8280000   25.1210000  
H 15.8920000   20.1940000   26.0570000  
H 15.8340000   21.0910000   28.9880000  
C 14.0500000   19.3050000   24.9380000  
C 13.4990000   19.8140000   23.7330000  
C 14.1040000   19.4090000   22.4940000  
C 15.1330000   18.4240000   22.3300000  
C 15.6640000   17.8920000   23.5890000  
C 15.1170000   18.3360000   24.7830000  
C 12.5990000   20.8740000   23.3620000  
C 12.6090000   20.9430000   21.9210000  
N 13.4170000   19.9090000   21.4070000  
O 11.2210000   22.8560000   21.8370000  
C 11.9230000   21.9690000   21.1450000  
O 11.9610000   22.0300000   19.9190000  
O 16.6530000   16.9390000   23.5680000  
O 15.5980000   17.8220000   25.9140000  
H 12.0170000   21.4790000   24.1250000  
H 11.3460000   22.7710000   22.7580000  
H 13.6080000   19.7230000   20.4340000  
H 17.0080000   16.8590000   22.6700000  
H 15.8570000   16.9250000   25.7170000  
C 15.6600000   18.0730000   20.9810000  
C 16.5750000   18.9690000   20.3470000  
C 17.3190000   18.5280000   19.2750000  
C 17.1170000   17.3020000   18.5820000  
C 16.1050000   16.4520000   19.0670000  
C 15.4540000   16.8220000   20.2940000  
C 17.1530000   20.2650000   20.6870000  
C 18.0920000   20.5960000   19.6590000  
N 18.2490000   19.4400000   18.8890000  
O 18.4160000   22.8250000   20.5400000  
C 18.7300000   21.9230000   19.5750000  
O 19.4380000   22.1920000   18.6360000  
O 15.8880000   15.2550000   18.3760000  
O 14.5690000   15.9010000   20.8310000  
H 16.6600000   20.9650000   21.3400000  
H 17.8070000   22.4090000   21.2530000  
H 18.9630000   19.3260000   18.1500000  
H 16.3410000   15.2600000   17.4830000  
H 14.1230000   15.3880000   20.1240000  
C 17.9040000   16.9980000   17.4050000  
C 19.2520000   16.6020000   17.5460000  
C 20.1040000   16.3590000   16.4870000  
C 19.7060000   16.4410000   15.1580000  
C 18.3200000   16.8040000   14.9680000  
C 17.4340000   16.9590000   16.1040000  
C 20.0550000   16.3970000   18.7700000  
C 21.2860000   16.0830000   18.3770000  
N 21.3330000   16.0150000   17.0010000  
O 22.1690000   15.5480000   20.5540000  
C 22.3780000   15.7010000   19.2030000  
O 23.4410000   15.3570000   18.7770000  
O 17.7890000   16.7250000   13.7290000  
O 16.1210000   17.1410000   15.9480000  
H 19.7090000   16.4400000   19.7680000  
H 21.2490000   15.4960000   20.6520000  
H 22.2750000   15.8600000   16.5450000  
H 18.4960000   17.0700000   13.1040000  
H 15.9750000   17.1170000   14.9890000  
H 20.2160000   16.1500000   14.2700000  
