78
001 
C 16.4970000   16.1530000   14.5200000  
C 15.3570000   16.6400000   13.8380000  
C 14.5130000   17.5010000   14.4970000  
C 14.7500000   17.8660000   15.7940000  
C 15.8410000   17.3060000   16.6160000  
C 16.7530000   16.4720000   15.8990000  
C 13.2210000   17.9280000   14.1440000  
C 12.6370000   18.4070000   15.3510000  
N 13.6310000   18.4200000   16.3510000  
O 10.5370000   19.0740000   14.3020000  
C 11.2800000   19.0880000   15.4690000  
O 10.7960000   19.6110000   16.4870000  
O 17.7230000   15.7770000   16.5520000  
O 17.3670000   15.2460000   13.8760000  
H 15.0790000   16.3350000   12.8520000  
H 12.8300000   17.8980000   13.1030000  
H 11.0950000   18.5290000   13.6850000  
H 13.6110000   18.8480000   17.2440000  
H 17.7240000   16.0520000   17.4840000  
H 17.6790000   14.6240000   14.5610000  
C 16.1170000   17.6940000   18.0480000  
C 16.0690000   16.6830000   19.1110000  
C 16.0300000   17.0340000   20.4740000  
C 16.1670000   18.3390000   20.9320000  
C 16.5620000   19.2180000   19.9560000  
C 16.4400000   18.9620000   18.5610000  
C 15.5820000   15.3210000   19.0750000  
C 15.3630000   14.9510000   20.3970000  
N 15.4670000   16.0720000   21.2200000  
O 14.5920000   12.7630000   20.0410000  
C 14.8820000   13.6770000   20.9550000  
O 14.7550000   13.4080000   22.1290000  
O 16.9320000   20.5500000   20.3590000  
O 16.5580000   19.9770000   17.6470000  
H 15.2810000   14.7280000   18.2200000  
H 14.7440000   13.1000000   19.2390000  
H 15.2200000   16.1210000   22.1950000  
H 16.9940000   20.5990000   21.3670000  
H 16.6460000   20.8040000   18.1460000  
C 15.8210000   18.8020000   22.3090000  
C 16.8250000   19.1140000   23.2520000  
C 16.4840000   19.4890000   24.4610000  
C 15.2080000   19.6690000   24.9830000  
C 14.1740000   19.5890000   24.0320000  
C 14.4740000   19.1350000   22.7670000  
C 18.2360000   18.9360000   23.1350000  
C 18.6970000   19.1810000   24.4560000  
N 17.5940000   19.3940000   25.3030000  
O 20.9900000   19.2560000   24.0570000  
C 20.0720000   19.3490000   24.9850000  
O 20.3090000   19.5600000   26.1470000  
O 12.9080000   19.8850000   24.3270000  
O 13.4240000   18.9470000   21.8540000  
H 18.7860000   18.7120000   22.2280000  
H 20.5640000   19.2400000   23.2140000  
H 17.6690000   19.7170000   26.2260000  
H 12.8620000   20.2500000   25.2350000  
H 12.5660000   18.8980000   22.4560000  
C 14.9590000   19.9800000   26.4470000  
C 15.6010000   21.0640000   27.0660000  
C 15.5640000   21.4170000   28.4310000  
C 14.8140000   20.5790000   29.2250000  
C 14.0950000   19.4930000   28.6750000  
C 14.1680000   19.1650000   27.3150000  
C 16.5040000   22.0350000   26.4330000  
C 16.9010000   22.9240000   27.4170000  
N 16.2880000   22.5400000   28.6560000  
O 18.1220000   24.4560000   26.0010000  
C 17.7610000   24.1350000   27.2640000  
O 17.9690000   24.8560000   28.2210000  
O 13.3210000   18.7460000   29.4650000  
O 13.5670000   18.0030000   26.9480000  
H 16.8190000   22.0230000   25.4120000  
H 17.6310000   23.9190000   25.3840000  
H 16.5550000   22.8720000   29.5610000  
H 13.4290000   19.1380000   30.3090000  
H 13.4690000   17.4810000   27.7550000  
H 14.6300000   20.8590000   30.2370000  
