78
001 
C 16.6440000   13.3250000   16.5860000  
C 17.5580000   13.8510000   15.6520000  
C 18.0340000   15.1130000   15.8320000  
C 17.8080000   15.8180000   16.9660000  
C 16.8110000   15.4180000   17.9140000  
C 16.2760000   14.1490000   17.6840000  
C 19.1280000   15.8030000   15.1730000  
C 19.3080000   17.0440000   15.8480000  
N 18.4470000   17.0150000   16.9230000  
O 21.0600000   18.0260000   14.4370000  
C 20.2460000   18.1460000   15.5110000  
O 20.3270000   19.1600000   16.1110000  
O 15.3210000   13.6100000   18.5310000  
O 16.1470000   12.0770000   16.4280000  
H 17.9330000   13.3650000   14.7550000  
H 19.7150000   15.4580000   14.2940000  
H 20.8120000   17.2060000   13.9740000  
H 18.3590000   17.7510000   17.6270000  
H 14.8680000   14.3520000   19.0190000  
H 15.8050000   11.7130000   17.2230000  
C 16.4560000   16.2430000   19.0710000  
C 15.8870000   17.4410000   18.9210000  
C 15.3890000   18.1190000   19.9900000  
C 15.9070000   17.8640000   21.3200000  
C 16.5300000   16.6360000   21.5270000  
C 16.7300000   15.7820000   20.4070000  
C 15.5250000   18.1810000   17.8070000  
C 14.9720000   19.3450000   18.2100000  
N 14.9580000   19.3430000   19.6240000  
O 14.7630000   20.4900000   16.1540000  
C 14.6110000   20.5470000   17.4790000  
O 14.2280000   21.5360000   18.0150000  
O 16.8250000   16.1380000   22.7650000  
O 17.1540000   14.5470000   20.5870000  
H 15.5990000   17.8160000   16.7690000  
H 14.9480000   19.5830000   15.8790000  
H 14.7660000   20.2020000   20.2070000  
H 16.4890000   16.8540000   23.3700000  
H 17.0880000   14.4460000   21.5690000  
C 15.6960000   18.8170000   22.4810000  
C 14.3830000   19.2880000   22.7680000  
C 14.1880000   20.1200000   23.8200000  
C 15.2460000   20.6230000   24.6760000  
C 16.5360000   20.2010000   24.3620000  
C 16.7650000   19.3320000   23.2590000  
C 13.0290000   18.9700000   22.2850000  
C 12.1450000   19.7440000   23.0270000  
N 12.9120000   20.5540000   23.9260000  
O 10.2580000   18.7920000   21.8800000  
C 10.6610000   19.6240000   22.8720000  
O  9.8470000   20.0450000   23.6640000  
O 17.6310000   20.7850000   24.9620000  
O 18.0440000   18.9400000   23.0820000  
H 12.6810000   18.1600000   21.6680000  
H 11.0320000   18.3790000   21.4010000  
H 12.5770000   21.2670000   24.5700000  
H 17.2570000   21.3490000   25.6580000  
H 18.6110000   19.7480000   23.1740000  
C 15.0010000   21.5870000   25.7570000  
C 15.1200000   21.2640000   27.0740000  
C 14.8840000   22.2420000   28.0620000  
C 14.5740000   23.5590000   27.7520000  
C 14.5750000   23.9210000   26.3990000  
C 14.7420000   22.9500000   25.4120000  
C 15.1570000   19.9880000   27.7820000  
C 14.9600000   20.2680000   29.1190000  
N 14.7900000   21.6320000   29.2970000  
O 14.8180000   18.0150000   29.8210000  
C 14.6540000   19.2760000   30.1590000  
O 14.2890000   19.4840000   31.3290000  
O 14.4200000   25.2580000   26.0050000  
O 14.7990000   23.3420000   24.1340000  
H 15.1070000   19.0590000   27.2840000  
H 15.0390000   18.0560000   28.8850000  
H 14.6540000   22.1400000   30.1670000  
H 14.2970000   25.8240000   26.7990000  
H 14.5320000   24.2870000   24.0740000  
H 14.3170000   24.3410000   28.4300000  
