78
001 
C  8.8980000   19.0690000   20.1070000  
C  8.1500000   20.2390000   20.4680000  
C  8.8340000   21.3750000   20.7940000  
C 10.2000000   21.3550000   20.8650000  
C 11.0210000   20.3130000   20.4640000  
C 10.2890000   19.0750000   20.0970000  
C  8.3620000   22.5900000   21.1830000  
C  9.5070000   23.3910000   21.4260000  
N 10.6770000   22.6070000   21.2160000  
O  8.4240000   25.4040000   21.7660000  
C  9.6090000   24.8090000   21.8230000  
O 10.6120000   25.3620000   22.2080000  
O 11.0010000   17.9630000   19.6690000  
O  8.1890000   17.9760000   19.7590000  
H  7.0620000   20.1280000   20.6630000  
H  7.3060000   22.9610000   21.2350000  
H  7.9020000   24.7470000   21.3200000  
H 11.6230000   22.9320000   21.4550000  
H 11.9560000   18.1200000   19.7850000  
H  8.6140000   17.1960000   20.1810000  
C 12.5320000   20.3030000   20.5070000  
C 13.1840000   20.2130000   21.7530000  
C 14.4670000   19.9400000   21.8930000  
C 15.3340000   19.6080000   20.9120000  
C 14.7560000   19.5130000   19.6470000  
C 13.3780000   19.8700000   19.4120000  
C 12.6390000   20.3960000   23.0480000  
C 13.6940000   20.3350000   23.9340000  
N 14.8430000   20.0360000   23.1880000  
O 12.3870000   20.9890000   25.9130000  
C 13.5260000   20.5790000   25.4070000  
O 14.4330000   20.4380000   26.1910000  
O 15.4940000   18.9500000   18.6260000  
O 12.8910000   19.5590000   18.1500000  
H 11.6280000   20.5880000   23.3180000  
H 11.7600000   20.8420000   25.1830000  
H 15.8020000   20.0530000   23.4360000  
H 16.4160000   19.2070000   18.8080000  
H 13.7490000   19.4760000   17.7090000  
C 16.7600000   19.1800000   21.2990000  
C 16.9650000   17.9400000   22.0410000  
C 18.2350000   17.4540000   22.1520000  
C 19.4040000   18.1590000   21.7290000  
C 19.2350000   19.4770000   21.1280000  
C 17.9030000   19.9050000   20.8140000  
C 16.0830000   17.0320000   22.7340000  
C 16.9270000   16.0640000   23.3530000  
N 18.2480000   16.3240000   22.9440000  
O 15.1100000   14.9470000   24.4530000  
C 16.4270000   14.9370000   24.1800000  
O 17.0950000   14.0470000   24.7140000  
O 20.2480000   20.2550000   20.7330000  
O 17.7500000   21.0320000   19.9940000  
H 14.9860000   17.0630000   22.8170000  
H 14.7430000   15.7060000   23.9490000  
H 19.0670000   15.8110000   23.1580000  
H 21.0570000   20.0590000   21.2500000  
H 18.6060000   21.4270000   19.6810000  
C 20.7360000   17.5580000   22.1000000  
C 21.1320000   16.3010000   21.6000000  
C 22.3010000   15.5950000   21.9370000  
C 23.0860000   16.1630000   22.9450000  
C 22.8120000   17.4850000   23.4460000  
C 21.6550000   18.1530000   22.9830000  
C 20.4930000   15.4670000   20.6070000  
C 21.1700000   14.2230000   20.6120000  
N 22.3450000   14.3640000   21.3250000  
O 19.8580000   13.3880000   18.8230000  
C 20.7190000   13.0790000   19.8420000  
O 21.0990000   11.9500000   20.0370000  
O 23.6680000   18.0720000   24.3730000  
O 21.6500000   19.4760000   23.2840000  
H 19.4890000   15.6260000   20.1820000  
H 19.8720000   14.3880000   18.7910000  
H 23.1540000   13.7870000   21.2660000  
H 24.2010000   17.4380000   24.7960000  
H 22.4650000   19.7610000   23.7860000  
H 23.8360000   15.4640000   23.3760000  
