78
001 
C 19.1610000   15.7420000   15.5470000  
C 18.1140000   15.5060000   14.6030000  
C 16.8820000   16.1160000   14.9380000  
C 16.6740000   16.5190000   16.2400000  
C 17.6010000   16.5790000   17.2690000  
C 18.8990000   16.1370000   16.9380000  
C 15.6400000   16.1330000   14.3170000  
C 14.7830000   16.7790000   15.1880000  
N 15.3830000   16.9590000   16.4260000  
O 13.0660000   16.8690000   13.5670000  
C 13.4360000   17.1890000   14.8440000  
O 12.7740000   17.8220000   15.6400000  
O 19.8520000   16.2860000   17.9410000  
O 20.4540000   15.4950000   15.2040000  
H 18.3250000   14.9800000   13.6430000  
H 15.4270000   15.7060000   13.3740000  
H 13.9320000   16.6520000   13.0860000  
H 15.0140000   17.5750000   17.1450000  
H 19.4400000   16.7530000   18.6530000  
H 21.0610000   15.2850000   15.9350000  
C 17.2490000   17.2070000   18.6020000  
C 16.4830000   16.5760000   19.5270000  
C 16.2320000   17.1350000   20.7840000  
C 16.4320000   18.4750000   21.0650000  
C 17.2400000   19.1560000   20.1320000  
C 17.6690000   18.5380000   18.9480000  
C 16.0410000   15.2060000   19.6030000  
C 15.3160000   15.0840000   20.7750000  
N 15.5270000   16.2560000   21.5440000  
O 14.3760000   13.0180000   20.2650000  
C 14.4430000   13.9820000   21.1690000  
O 13.9230000   13.8400000   22.2520000  
O 17.7350000   20.3830000   20.4480000  
O 18.3620000   19.3180000   18.0110000  
H 16.0370000   14.5370000   18.7680000  
H 14.9220000   13.1970000   19.5090000  
H 14.9780000   16.5790000   22.3480000  
H 17.3030000   20.5320000   21.2740000  
H 18.6770000   20.1330000   18.3820000  
C 15.7660000   19.1030000   22.2430000  
C 16.1560000   18.7220000   23.5780000  
C 15.4730000   19.2440000   24.6390000  
C 14.5840000   20.3750000   24.5710000  
C 14.3080000   20.7890000   23.2060000  
C 14.8210000   20.1780000   22.0110000  
C 17.0700000   17.7370000   24.1840000  
C 16.9220000   17.7740000   25.5300000  
N 15.9830000   18.7720000   25.8260000  
O 18.1570000   15.7600000   25.9630000  
C 17.5810000   16.8810000   26.4480000  
O 17.6380000   17.1180000   27.6310000  
O 13.4430000   21.8880000   22.9430000  
O 14.4810000   20.5330000   20.7820000  
H 17.8040000   17.0510000   23.6980000  
H 18.0420000   15.8170000   25.0200000  
H 15.5980000   18.9480000   26.7770000  
H 13.2250000   22.2420000   23.8030000  
H 13.7590000   21.1870000   20.7180000  
C 14.0040000   21.0590000   25.8000000  
C 14.1090000   22.4610000   26.1050000  
C 13.6410000   22.9750000   27.3880000  
C 12.9850000   22.1840000   28.2800000  
C 12.8130000   20.8020000   27.9760000  
C 13.3300000   20.2740000   26.7670000  
C 14.7120000   23.5950000   25.5210000  
C 14.5500000   24.6730000   26.3690000  
N 13.7600000   24.3390000   27.4960000  
O 15.7880000   26.1880000   24.9780000  
C 15.1180000   25.9830000   26.1470000  
O 15.0300000   26.9220000   26.9530000  
O 12.1440000   19.9830000   28.7960000  
O 13.1190000   18.9790000   26.5450000  
H 15.2390000   23.5150000   24.6290000  
H 15.6390000   25.3460000   24.5020000  
H 13.5020000   24.9580000   28.2900000  
H 11.8800000   20.4820000   29.6330000  
H 12.6620000   18.6320000   27.4220000  
H 12.5940000   22.5690000   29.1650000  
