78
001 
C 10.5640000   16.8940000   16.4980000  
C 10.4500000   17.9010000   15.5810000  
C 11.3430000   18.9580000   15.7700000  
C 12.2170000   19.0340000   16.8550000  
C 12.3670000   18.0360000   17.7670000  
C 11.5090000   16.9160000   17.5590000  
C 11.6070000   20.1660000   15.0160000  
C 12.5650000   20.9390000   15.6990000  
N 12.9210000   20.2110000   16.8580000  
O 12.2110000   22.9050000   14.3600000  
C 12.8900000   22.3210000   15.4070000  
O 13.6890000   22.9700000   16.0460000  
O 11.6980000   15.8060000   18.2100000  
O  9.9540000   15.7080000   16.2220000  
H  9.6750000   17.7840000   14.7360000  
H 11.2770000   20.4740000   14.0210000  
H 11.5540000   22.3670000   13.9220000  
H 13.6180000   20.4270000   17.5430000  
H 12.4620000   15.8920000   18.8300000  
H 10.4860000   15.0210000   16.6180000  
C 13.4520000   18.1200000   18.7670000  
C 13.4180000   19.1170000   19.7960000  
C 14.4740000   19.2490000   20.6460000  
C 15.5690000   18.3750000   20.6780000  
C 15.6290000   17.3380000   19.7560000  
C 14.5490000   17.1800000   18.8760000  
C 12.4940000   20.1550000   20.1040000  
C 13.0360000   20.8730000   21.1680000  
N 14.3150000   20.3180000   21.4550000  
O 11.1630000   22.3090000   21.3420000  
C 12.3470000   22.0160000   21.8730000  
O 12.8360000   22.6790000   22.7560000  
O 16.6550000   16.5120000   19.7310000  
O 14.6040000   16.0980000   18.0650000  
H 11.5230000   20.2160000   19.6060000  
H 11.0620000   21.8890000   20.4900000  
H 15.0320000   20.7010000   22.0490000  
H 17.2400000   16.8400000   20.4240000  
H 15.4840000   15.6650000   18.1150000  
C 16.5580000   18.4830000   21.7500000  
C 16.1630000   18.3400000   23.0780000  
C 17.0590000   18.5040000   24.0900000  
C 18.3950000   18.8000000   23.8960000  
C 18.8780000   18.8360000   22.6040000  
C 17.9740000   18.7070000   21.5210000  
C 14.8530000   18.2400000   23.7220000  
C 15.1010000   18.2020000   25.1240000  
N 16.5140000   18.3430000   25.3680000  
O 12.8210000   18.1780000   25.7650000  
C 14.1180000   18.1670000   26.1980000  
O 14.3940000   18.1170000   27.3740000  
O 20.2130000   18.9770000   22.4170000  
O 18.4630000   18.8790000   20.2680000  
H 13.9070000   18.2630000   23.2020000  
H 12.8240000   18.2250000   24.8030000  
H 16.9520000   17.9340000   26.1590000  
H 20.5720000   18.8720000   23.3250000  
H 19.4350000   19.0920000   20.3740000  
C 19.2840000   19.0250000   25.0920000  
C 19.8370000   18.0230000   25.8710000  
C 20.5030000   18.2860000   27.0550000  
C 20.6880000   19.5420000   27.4950000  
C 19.9970000   20.5770000   26.8670000  
C 19.4500000   20.3860000   25.5500000  
C 20.0170000   16.6470000   25.6080000  
C 20.7640000   16.1370000   26.6950000  
N 21.0000000   17.1300000   27.6820000  
O 20.6580000   13.8670000   25.8810000  
C 21.1900000   14.7000000   26.8060000  
O 22.0070000   14.2930000   27.6390000  
O 20.2130000   21.8320000   27.2920000  
O 18.8930000   21.4180000   24.8630000  
H 19.7970000   16.1220000   24.6610000  
H 19.9930000   14.4060000   25.3650000  
H 21.5810000   17.0420000   28.5020000  
H 20.0070000   21.9140000   28.2580000  
H 19.1010000   22.2140000   25.3940000  
H 21.1940000   19.6800000   28.4240000  
