78
001 
C 13.8110000   14.1440000   16.5250000  
C 14.3190000   14.4460000   15.2610000  
C 15.2760000   15.4260000   15.1530000  
C 15.7300000   16.0890000   16.2250000  
C 15.2610000   15.8690000   17.5480000  
C 14.2990000   14.8170000   17.7080000  
C 15.7740000   16.0780000   13.9880000  
C 16.5620000   17.0890000   14.4750000  
N 16.6780000   17.0040000   15.8350000  
O 17.0570000   17.8680000   12.3070000  
C 17.2300000   18.0850000   13.6070000  
O 17.9690000   18.9580000   14.0370000  
O 13.8420000   14.5200000   18.9390000  
O 12.9280000   13.1070000   16.5910000  
H 13.8560000   13.9000000   14.4460000  
H 15.4070000   15.9600000   12.9290000  
H 16.3140000   17.2310000   12.3030000  
H 17.1940000   17.6460000   16.4310000  
H 14.5330000   14.9530000   19.4740000  
H 12.7170000   13.1100000   17.5090000  
C 15.8050000   16.6000000   18.6910000  
C 15.5000000   17.9380000   18.8530000  
C 15.7500000   18.6110000   20.0470000  
C 16.3410000   18.0490000   21.2030000  
C 16.6460000   16.7000000   21.0770000  
C 16.3310000   15.9960000   19.9030000  
C 14.9050000   18.9150000   17.9650000  
C 14.8710000   20.1120000   18.6480000  
N 15.4690000   19.9200000   19.9030000  
O 14.4250000   21.3450000   16.6810000  
C 14.5670000   21.4020000   17.9990000  
O 14.4900000   22.4580000   18.5870000  
O 17.2180000   15.9870000   22.1230000  
O 16.6660000   14.6440000   19.8900000  
H 14.8370000   18.7580000   16.8550000  
H 14.6050000   20.3470000   16.4840000  
H 15.5800000   20.6410000   20.5830000  
H 17.3520000   16.5760000   22.9210000  
H 17.0250000   14.3720000   20.7720000  
C 16.5640000   18.8760000   22.4320000  
C 15.4510000   19.5020000   23.0730000  
C 15.5760000   20.1870000   24.2150000  
C 16.7650000   20.4920000   24.8930000  
C 17.8840000   19.8330000   24.3190000  
C 17.8210000   19.0570000   23.0980000  
C 14.0720000   19.4920000   22.7330000  
C 13.4040000   20.1870000   23.7870000  
N 14.3940000   20.6120000   24.6950000  
O 11.1540000   20.0160000   23.1530000  
C 11.9470000   20.4720000   24.0600000  
O 11.5870000   21.0540000   25.0780000  
O 19.1070000   19.9970000   24.8760000  
O 19.0060000   18.4020000   22.7230000  
H 13.6230000   19.1050000   21.8470000  
H 11.7720000   19.5220000   22.5660000  
H 14.2700000   21.3830000   25.4380000  
H 19.0880000   20.9160000   25.2280000  
H 19.5340000   18.3770000   23.5330000  
C 16.8520000   21.1430000   26.2720000  
C 16.1810000   20.5440000   27.4080000  
C 16.2830000   21.1000000   28.6680000  
C 16.8940000   22.3040000   28.9540000  
C 17.5270000   22.9410000   27.8920000  
C 17.5090000   22.3640000   26.5720000  
C 15.5060000   19.3390000   27.5040000  
C 15.1650000   19.1670000   28.8180000  
N 15.5640000   20.3030000   29.5410000  
O 14.1650000   17.1100000   28.3300000  
C 14.4210000   17.9680000   29.3000000  
O 14.1540000   17.7820000   30.4690000  
O 18.1550000   24.0880000   28.2460000  
O 18.1580000   23.0130000   25.6200000  
H 15.3380000   18.7430000   26.7300000  
H 14.3990000   17.6490000   27.6030000  
H 15.4100000   20.5200000   30.5170000  
H 17.7100000   24.6650000   28.8930000  
H 18.6250000   23.7540000   26.0690000  
H 16.9250000   22.6540000   29.9280000  
