78
001 
C 19.5180000   12.2900000   21.1090000  
C 20.8980000   12.6920000   21.1610000  
C 21.2250000   13.9840000   21.3970000  
C 20.1910000   14.8550000   21.6200000  
C 18.8440000   14.5540000   21.6990000  
C 18.5160000   13.2540000   21.2430000  
C 22.4680000   14.6330000   21.5140000  
C 22.1770000   15.9400000   21.8320000  
N 20.7510000   16.1020000   21.9530000  
O 24.4520000   16.5080000   21.8940000  
C 23.2120000   17.0210000   21.9620000  
O 23.0440000   18.2320000   22.1540000  
O 17.2280000   12.9030000   20.9750000  
O 19.1450000   10.9660000   20.9980000  
H 21.6330000   11.9840000   20.8840000  
H 23.4800000   14.2550000   21.3460000  
H 24.3960000   15.5490000   21.7530000  
H 20.2720000   16.9380000   22.1270000  
H 16.7610000   13.6740000   21.3430000  
H 18.1630000   10.9090000   20.6960000  
C 17.8210000   15.6730000   21.9020000  
C 17.8210000   16.7630000   21.0160000  
C 16.8650000   17.7890000   21.1300000  
C 15.9100000   17.8710000   22.0970000  
C 15.8370000   16.7240000   22.9700000  
C 16.7630000   15.6270000   22.8260000  
C 18.7440000   17.1590000   19.9520000  
C 18.2760000   18.4360000   19.4870000  
N 17.0910000   18.8080000   20.1880000  
O 19.9340000   18.6310000   17.6930000  
C 18.8930000   19.1680000   18.3520000  
O 18.4780000   20.2780000   18.0110000  
O 14.8690000   16.6530000   23.9450000  
O 16.6210000   14.4640000   23.5700000  
H 19.4710000   16.5310000   19.4370000  
H 20.2450000   17.8360000   18.2310000  
H 16.6800000   19.7430000   20.2660000  
H 14.3880000   17.4670000   23.9800000  
H 15.9130000   14.7000000   24.2680000  
C 14.9910000   19.0300000   22.1700000  
C 13.9750000   19.1890000   21.2500000  
C 13.2250000   20.3360000   21.2280000  
C 13.3260000   21.3010000   22.2830000  
C 14.3080000   21.1020000   23.3290000  
C 15.1290000   19.9330000   23.2720000  
C 13.6280000   18.4360000   20.1060000  
C 12.5440000   19.0930000   19.4850000  
N 12.3020000   20.3040000   20.1830000  
O 12.1740000   17.3240000   17.8290000  
C 11.7840000   18.5200000   18.3590000  
O 10.8910000   19.1830000   17.8000000  
O 14.3510000   21.9530000   24.4200000  
O 16.1030000   19.7090000   24.2830000  
H 14.1520000   17.5600000   19.6350000  
H 13.0480000   17.2790000   18.3100000  
H 11.7110000   21.0690000   19.8670000  
H 14.0690000   22.8320000   24.0820000  
H 16.2330000   20.4980000   24.8830000  
C 12.5170000   22.5730000   22.2900000  
C 11.3820000   22.7300000   23.1080000  
C 10.5540000   23.7860000   23.0380000  
C 10.8260000   24.9460000   22.2840000  
C 12.0080000   24.9060000   21.5330000  
C 12.7940000   23.7240000   21.4680000  
C 10.8970000   21.8610000   24.2100000  
C  9.7980000   22.5510000   24.7330000  
N  9.5740000   23.7130000   23.9760000  
O  9.5290000   20.9260000   26.4890000  
C  8.9820000   22.0320000   25.8430000  
O  8.0160000   22.6650000   26.2860000  
O 12.2290000   25.9970000   20.7850000  
O 13.6620000   23.5600000   20.4350000  
H 11.5060000   21.1270000   24.7190000  
H 10.4370000   20.8770000   26.0970000  
H  8.7460000   24.3110000   23.9510000  
H 11.7360000   26.7270000   21.2140000  
H 13.7940000   24.4460000   20.0270000  
H 10.2130000   25.8110000   22.1230000  
