78
001 
C  9.9250000   17.9210000   17.4970000  
C  9.2700000   19.1160000   17.1080000  
C  9.8790000   20.3100000   17.5010000  
C 11.0380000   20.3350000   18.1570000  
C 11.7910000   19.1830000   18.4980000  
C 11.1860000   17.9160000   18.1570000  
C  9.4780000   21.6880000   17.2340000  
C 10.5380000   22.4740000   17.7230000  
N 11.5330000   21.6300000   18.2500000  
O  9.6670000   24.5780000   17.1410000  
C 10.7490000   23.9450000   17.5310000  
O 11.7890000   24.4970000   17.7230000  
O 11.7010000   16.7130000   18.4370000  
O  9.4050000   16.7400000   17.0370000  
H  8.2460000   19.0990000   16.7890000  
H  8.6290000   22.0400000   16.7010000  
H  8.9010000   23.9770000   17.2190000  
H 12.4860000   21.8440000   18.5240000  
H 12.6790000   16.9360000   18.3690000  
H  9.9770000   16.0490000   17.4510000  
C 13.1130000   19.3520000   19.2170000  
C 13.2090000   19.9230000   20.5180000  
C 14.4370000   19.9010000   21.1460000  
C 15.5510000   19.2530000   20.6580000  
C 15.4510000   18.6010000   19.3980000  
C 14.2510000   18.7170000   18.7090000  
C 12.2450000   20.6130000   21.3780000  
C 12.9550000   20.9430000   22.5040000  
N 14.2890000   20.4750000   22.4250000  
O 11.0920000   21.7120000   23.6100000  
C 12.4180000   21.5040000   23.6960000  
O 13.0220000   21.5710000   24.7120000  
O 16.4280000   17.7800000   19.0150000  
O 14.1380000   17.9950000   17.5090000  
H 11.1440000   20.6660000   21.2170000  
H 10.7670000   21.5990000   22.7140000  
H 14.9850000   20.4270000   23.2000000  
H 17.1990000   18.0420000   19.6050000  
H 14.9230000   17.4310000   17.4050000  
C 16.7450000   19.0120000   21.5520000  
C 16.6610000   18.3230000   22.8150000  
C 17.7750000   18.0680000   23.5920000  
C 19.0820000   18.5010000   23.2000000  
C 19.1600000   19.3390000   22.0240000  
C 18.0320000   19.4960000   21.1960000  
C 15.4970000   17.8130000   23.5590000  
C 16.0160000   17.2650000   24.7530000  
N 17.4090000   17.5520000   24.8600000  
O 13.9120000   16.2770000   25.3290000  
C 15.2070000   16.4940000   25.7450000  
O 15.6940000   16.0840000   26.7470000  
O 20.4480000   19.7150000   21.7160000  
O 18.1660000   20.1910000   20.0280000  
H 14.5170000   17.7340000   23.1980000  
H 13.8460000   16.8290000   24.5200000  
H 17.9990000   17.3150000   25.6180000  
H 21.0400000   19.1820000   22.2450000  
H 19.0680000   20.6500000   20.0480000  
C 20.2620000   18.1560000   24.1390000  
C 20.6820000   16.8620000   24.2980000  
C 21.6460000   16.5420000   25.1910000  
C 22.4150000   17.5260000   25.8900000  
C 22.0330000   18.8590000   25.7240000  
C 20.9820000   19.1340000   24.8570000  
C 20.1990000   15.6140000   23.7780000  
C 20.8320000   14.6050000   24.3710000  
N 21.8000000   15.1780000   25.2550000  
O 19.6040000   12.7470000   23.4840000  
C 20.6920000   13.1100000   24.1660000  
O 21.5680000   12.3140000   24.5910000  
O 22.7250000   19.7880000   26.4020000  
O 20.7840000   20.4510000   24.6790000  
H 19.4160000   15.4770000   23.1220000  
H 19.1470000   13.6100000   23.4670000  
H 22.4720000   14.7180000   25.8000000  
H 23.3300000   19.2890000   26.9420000  
H 21.0800000   20.8170000   25.5340000  
H 23.1510000   17.2440000   26.6040000  
