78
001 
C 10.2040000   23.6120000   20.1770000  
C  8.9450000   22.9730000   20.2990000  
C  8.9710000   21.7840000   20.9610000  
C 10.1480000   21.1130000   21.2100000  
C 11.4000000   21.6700000   21.0240000  
C 11.4300000   22.9670000   20.5030000  
C  7.9030000   20.9180000   21.1840000  
C  8.5230000   19.7540000   21.7090000  
N  9.9090000   19.9560000   21.7270000  
O  6.5300000   18.6250000   21.8940000  
C  7.8430000   18.5660000   22.0970000  
O  8.3700000   17.6030000   22.5250000  
O 12.6460000   23.5620000   20.1640000  
O 10.2670000   24.8290000   19.5570000  
H  8.0140000   23.4640000   20.0100000  
H  6.8570000   21.0920000   21.2410000  
H  6.3630000   19.4910000   21.5430000  
H 10.6330000   19.3610000   22.1460000  
H 13.3390000   23.1620000   20.6940000  
H 11.2000000   25.1060000   19.4550000  
C 12.6760000   20.9670000   21.3180000  
C 13.0990000   19.8920000   20.4720000  
C 14.2810000   19.2630000   20.7850000  
C 15.0380000   19.4510000   21.9280000  
C 14.5820000   20.5320000   22.7650000  
C 13.5740000   21.3800000   22.3070000  
C 12.4530000   19.1940000   19.3560000  
C 13.3380000   18.1890000   19.0160000  
N 14.4120000   18.1720000   19.9610000  
O 12.0540000   17.5160000   17.1090000  
C 13.1340000   17.2840000   17.9300000  
O 13.9090000   16.3990000   17.6420000  
O 15.2760000   20.9130000   23.8430000  
O 13.3100000   22.5080000   22.9930000  
H 11.4900000   19.4340000   18.9150000  
H 11.5450000   18.1870000   17.4130000  
H 15.2310000   17.5730000   19.9050000  
H 15.9160000   20.1780000   23.9980000  
H 14.0130000   22.6720000   23.6290000  
C 16.2850000   18.6500000   22.1710000  
C 17.3690000   18.7260000   21.2750000  
C 18.5280000   18.0150000   21.4440000  
C 18.8090000   17.2400000   22.6400000  
C 17.8610000   17.3580000   23.7180000  
C 16.5840000   18.0200000   23.4360000  
C 17.6020000   19.4780000   20.0720000  
C 18.8230000   19.1340000   19.5390000  
N 19.3430000   18.1890000   20.4320000  
O 18.3780000   20.2100000   17.4890000  
C 19.2910000   19.4700000   18.1940000  
O 20.3780000   19.0970000   17.7040000  
O 17.8500000   16.5010000   24.7700000  
O 15.5850000   17.8620000   24.3590000  
H 16.9190000   20.2150000   19.6300000  
H 17.7420000   20.2460000   18.2520000  
H 20.2630000   17.7140000   20.3280000  
H 18.7450000   16.1800000   24.7340000  
H 15.8410000   17.2070000   25.0870000  
C 19.9410000   16.2520000   22.7230000  
C 20.8310000   16.3230000   23.8300000  
C 21.7640000   15.3800000   24.0740000  
C 21.9790000   14.2950000   23.2560000  
C 21.1510000   14.2130000   22.1110000  
C 20.1080000   15.1630000   21.8230000  
C 20.9520000   17.2660000   24.9400000  
C 22.0390000   16.9170000   25.6980000  
N 22.4680000   15.7130000   25.1920000  
O 21.7760000   18.6090000   27.3130000  
C 22.4570000   17.4860000   26.9740000  
O 23.2580000   17.0450000   27.7140000  
O 21.4320000   13.2590000   21.1170000  
O 19.4110000   15.0510000   20.6850000  
H 20.2770000   18.1560000   25.0150000  
H 21.0850000   18.7400000   26.6480000  
H 23.1480000   15.1220000   25.6680000  
H 21.9030000   12.4620000   21.5040000  
H 19.4370000   14.1270000   20.5230000  
H 22.8340000   13.5740000   23.3160000  
