78
001 
C 13.6010000   19.0410000   28.5070000  
C 14.4890000   18.7790000   29.5820000  
C 15.7870000   18.5990000   29.1900000  
C 16.1510000   18.6790000   27.9180000  
C 15.3180000   18.8490000   26.7600000  
C 13.9500000   19.0210000   27.1780000  
C 16.9860000   18.2660000   29.9210000  
C 18.0490000   18.1800000   29.0490000  
N 17.5040000   18.4860000   27.8080000  
O 19.8630000   17.6120000   30.6780000  
C 19.5260000   17.8530000   29.3410000  
O 20.4090000   17.7480000   28.4700000  
O 13.0890000   19.4620000   26.1600000  
O 12.2720000   19.3080000   28.8110000  
H 14.1090000   18.5930000   30.5580000  
H 16.9940000   18.0380000   30.9390000  
H 18.9650000   17.4740000   31.0540000  
H 18.0590000   18.5550000   26.9580000  
H 13.6300000   19.9020000   25.4950000  
H 11.8940000   19.7350000   28.0270000  
C 15.7970000   19.0620000   25.3300000  
C 16.2110000   17.9470000   24.5950000  
C 16.2100000   18.0770000   23.2010000  
C 16.0890000   19.2440000   22.4600000  
C 15.9210000   20.4050000   23.2520000  
C 15.5620000   20.2450000   24.5970000  
C 16.3240000   16.5730000   24.9260000  
C 16.3930000   15.9390000   23.6980000  
N 16.3910000   16.8380000   22.6300000  
O 16.4930000   13.6980000   24.4570000  
C 16.4990000   14.4960000   23.4140000  
O 16.5050000   14.0160000   22.2840000  
O 15.7680000   21.7060000   22.6600000  
O 15.0220000   21.3180000   25.2810000  
H 16.2050000   15.9790000   25.8570000  
H 16.8400000   14.2310000   25.1550000  
H 16.2970000   16.5960000   21.6210000  
H 16.0490000   21.6670000   21.7500000  
H 15.2620000   22.0770000   24.6970000  
C 16.2150000   19.2100000   21.0420000  
C 15.2140000   18.7010000   20.2380000  
C 15.3600000   18.6600000   18.8660000  
C 16.4260000   19.2960000   18.1530000  
C 17.4900000   19.7620000   19.0150000  
C 17.3790000   19.6640000   20.4250000  
C 13.9180000   18.0900000   20.4780000  
C 13.3940000   17.6270000   19.2720000  
N 14.2570000   18.0970000   18.2460000  
O 11.5140000   16.4670000   20.2630000  
C 12.0630000   16.8940000   19.1240000  
O 11.4690000   16.7730000   18.0670000  
O 18.6110000   20.3340000   18.4220000  
O 18.4370000   20.1260000   21.1570000  
H 13.5370000   17.7980000   21.4920000  
H 12.0860000   16.8750000   20.8940000  
H 14.0990000   18.0670000   17.2520000  
H 18.5270000   20.1340000   17.4630000  
H 19.2400000   20.0790000   20.6100000  
C 16.3690000   19.2490000   16.6550000  
C 15.5000000   20.0920000   15.9700000  
C 15.3920000   20.0180000   14.5520000  
C 16.2560000   19.2450000   13.7940000  
C 17.2680000   18.5680000   14.4920000  
C 17.3110000   18.5300000   15.8560000  
C 14.4070000   20.8880000   16.3700000  
C 13.7290000   21.3290000   15.2010000  
N 14.3100000   20.7630000   14.0820000  
O 11.8260000   22.1670000   16.4050000  
C 12.4420000   22.0480000   15.2300000  
O 11.9420000   22.4610000   14.1830000  
O 18.0860000   17.9220000   13.6320000  
O 18.3500000   17.8340000   16.4590000  
H 14.0990000   21.1830000   17.3980000  
H 12.3940000   21.7390000   17.1070000  
H 13.9740000   20.8150000   13.1210000  
H 18.1140000   18.4260000   12.7840000  
H 19.0400000   17.5630000   15.8500000  
H 16.1560000   19.1640000   12.7160000  
