78
001 
C 15.2010000   18.5120000   29.4290000  
C 13.8660000   18.8420000   29.7460000  
C 12.9530000   18.9330000   28.6810000  
C 13.3520000   18.8400000   27.3770000  
C 14.6470000   18.4770000   26.9100000  
C 15.5600000   18.3170000   28.0360000  
C 11.5240000   19.1430000   28.6640000  
C 11.1640000   19.2660000   27.3050000  
N 12.3240000   18.8810000   26.5160000  
O  8.9510000   19.9200000   27.5380000  
C  9.9310000   19.7040000   26.6570000  
O  9.8550000   19.8930000   25.4980000  
O 16.8770000   18.0670000   27.8050000  
O 16.2340000   18.4550000   30.3390000  
H 13.4780000   18.9450000   30.7750000  
H 10.9370000   19.4960000   29.4950000  
H  9.3920000   19.7560000   28.4090000  
H 12.3590000   18.7360000   25.5230000  
H 16.9570000   18.0980000   26.8580000  
H 17.0880000   18.4280000   29.8520000  
C 14.9800000   18.2780000   25.4730000  
C 14.7640000   19.3220000   24.5080000  
C 15.0470000   19.1550000   23.2100000  
C 15.5530000   18.0230000   22.6470000  
C 15.7920000   16.9730000   23.5160000  
C 15.4950000   17.0800000   24.8980000  
C 14.3410000   20.7300000   24.6600000  
C 14.1910000   21.2480000   23.4140000  
N 14.6730000   20.2770000   22.5000000  
O 13.4820000   23.2890000   24.2860000  
C 13.7250000   22.6020000   23.1670000  
O 13.6110000   23.0650000   22.0580000  
O 16.3980000   15.8460000   23.0270000  
O 15.5700000   16.0360000   25.7390000  
H 14.1020000   21.2670000   25.5950000  
H 13.7970000   22.6940000   24.9520000  
H 14.8220000   20.3940000   21.5480000  
H 16.2680000   15.7290000   22.0710000  
H 15.6230000   15.2360000   25.1350000  
C 15.8830000   17.9440000   21.1600000  
C 16.8050000   18.8490000   20.5450000  
C 16.9020000   18.8900000   19.1830000  
C 16.3400000   17.9180000   18.3260000  
C 15.5540000   16.8810000   18.9590000  
C 15.3460000   16.9210000   20.3620000  
C 17.6170000   19.9320000   21.0000000  
C 18.0960000   20.6050000   19.9380000  
N 17.6900000   19.9730000   18.7440000  
O 19.4550000   21.9930000   21.2330000  
C 19.0410000   21.7400000   20.0180000  
O 19.6370000   22.2980000   19.0560000  
O 14.9580000   15.8900000   18.1650000  
O 14.6840000   15.8290000   20.8590000  
H 17.8320000   20.1820000   22.0340000  
H 18.9870000   21.3030000   21.7700000  
H 18.0900000   20.0960000   17.8070000  
H 14.9450000   16.2380000   17.2360000  
H 14.5970000   15.2740000   20.0930000  
C 16.4130000   17.9650000   16.8740000  
C 17.5690000   17.7730000   16.1960000  
C 17.5990000   17.7930000   14.8170000  
C 16.4990000   18.0880000   13.9820000  
C 15.3220000   18.4080000   14.6570000  
C 15.2630000   18.2820000   16.0900000  
C 18.8710000   17.3480000   16.6660000  
C 19.6090000   17.1410000   15.5000000  
N 18.8800000   17.4480000   14.4460000  
O 21.5520000   16.3020000   16.7640000  
C 21.0270000   16.6500000   15.5110000  
O 21.6590000   16.4710000   14.4720000  
O 14.1770000   18.8790000   13.9460000  
O 14.1070000   18.4110000   16.7150000  
H 19.1880000   17.2060000   17.6650000  
H 20.7730000   16.4760000   17.3500000  
H 19.3470000   17.5680000   13.4750000  
H 14.5790000   19.1340000   13.1030000  
H 13.4160000   18.3320000   16.0630000  
H 16.6210000   18.2110000   12.9100000  
