78
001 
C 10.2310000   23.9710000   23.3390000  
C  9.0360000   23.2050000   23.1400000  
C  9.1590000   21.8080000   23.1130000  
C 10.3780000   21.1830000   23.2420000  
C 11.5880000   21.9110000   23.3120000  
C 11.5090000   23.2870000   23.5390000  
C  8.2010000   20.6590000   23.0220000  
C  8.9510000   19.4760000   22.9520000  
N 10.2790000   19.8260000   23.0940000  
O  7.1340000   18.1740000   22.3640000  
C  8.5190000   18.2180000   22.3290000  
O  9.2580000   17.2720000   21.8990000  
O 12.5880000   24.0270000   23.9210000  
O 10.1340000   25.2850000   23.3640000  
H  8.0980000   23.6740000   22.9640000  
H  7.1330000   20.7560000   22.6770000  
H  6.9620000   19.0090000   22.8380000  
H 11.0750000   19.2040000   23.0490000  
H 13.4360000   23.5630000   23.8570000  
H 10.9560000   25.7130000   23.2050000  
C 12.8990000   21.1980000   23.0930000  
C 13.1620000   20.5010000   21.8620000  
C 14.2880000   19.7450000   21.6620000  
C 15.3390000   19.6690000   22.5880000  
C 15.1110000   20.3600000   23.7920000  
C 13.9410000   21.0860000   24.0620000  
C 12.4300000   20.3000000   20.6300000  
C 13.1130000   19.3470000   19.8900000  
N 14.2510000   18.9900000   20.5730000  
O 11.3710000   18.9340000   18.2170000  
C 12.6190000   18.7210000   18.6330000  
O 13.2810000   17.9590000   17.9760000  
O 16.0550000   20.3760000   24.8420000  
O 13.7590000   21.6860000   25.3070000  
H 11.5200000   20.7660000   20.2190000  
H 10.9050000   19.4580000   18.8930000  
H 14.9070000   18.2580000   20.3750000  
H 16.6820000   19.6570000   24.7510000  
H 14.2530000   21.1060000   25.9650000  
C 16.5530000   18.8800000   22.2880000  
C 17.2210000   19.0070000   21.0360000  
C 18.2650000   18.1620000   20.6850000  
C 18.6150000   17.0170000   21.4270000  
C 17.9470000   16.8900000   22.6630000  
C 16.9440000   17.7800000   23.1070000  
C 17.0530000   19.8470000   19.8610000  
C 17.9880000   19.5200000   18.9050000  
N 18.6850000   18.4200000   19.3940000  
O 17.4160000   21.2850000   17.3500000  
C 18.1620000   20.1690000   17.6150000  
O 18.9100000   19.6160000   16.7970000  
O 18.3360000   15.8230000   23.4500000  
O 16.1920000   17.4830000   24.2720000  
H 16.2280000   20.5500000   19.8050000  
H 17.0470000   21.5860000   18.2010000  
H 19.4150000   17.9180000   18.9030000  
H 19.1790000   15.4100000   23.0980000  
H 16.1290000   16.5530000   24.4680000  
C 19.5990000   15.9740000   20.9340000  
C 20.7170000   15.6170000   21.7700000  
C 21.6690000   14.7630000   21.3610000  
C 21.6510000   14.1340000   20.0620000  
C 20.5520000   14.4100000   19.2520000  
C 19.4910000   15.2750000   19.6800000  
C 21.2060000   16.1880000   23.0370000  
C 22.4340000   15.6820000   23.3040000  
N 22.7270000   14.8300000   22.2210000  
O 22.9640000   16.5820000   25.4460000  
C 23.3020000   15.7630000   24.5080000  
O 24.3650000   15.1610000   24.5360000  
O 20.4640000   13.7840000   17.9770000  
O 18.4600000   15.5310000   18.8640000  
H 20.6580000   16.7490000   23.7920000  
H 22.2880000   17.1960000   25.0350000  
H 23.4100000   14.0640000   22.1570000  
H 20.8330000   12.8490000   17.9610000  
H 18.6730000   15.1700000   17.9650000  
H 22.4870000   13.5310000   19.7040000  
