78
001 
C 12.9790000   21.3850000   15.4540000  
C 11.7040000   20.8770000   15.1720000  
C 10.9910000   20.2430000   16.1730000  
C 11.5030000   20.0630000   17.4100000  
C 12.8060000   20.4080000   17.7590000  
C 13.5440000   21.1190000   16.7480000  
C  9.6750000   19.6280000   16.1810000  
C  9.5620000   19.0180000   17.4350000  
N 10.7130000   19.3290000   18.1980000  
O  7.5080000   18.0530000   16.7050000  
C  8.4880000   17.9880000   17.5990000  
O  8.4870000   17.1820000   18.5150000  
O 14.8510000   21.4620000   16.9320000  
O 13.5830000   22.1210000   14.4660000  
H 11.1880000   21.1480000   14.2340000  
H  8.9900000   19.5820000   15.3570000  
H  7.6980000   18.9030000   16.2750000  
H 10.7400000   19.2980000   19.1950000  
H 15.2230000   21.0590000   17.7560000  
H 14.5520000   22.2070000   14.5440000  
C 13.4200000   20.0280000   19.0790000  
C 14.0170000   18.7940000   19.1380000  
C 14.6600000   18.4500000   20.3020000  
C 14.7620000   19.3230000   21.4710000  
C 14.1750000   20.6060000   21.3010000  
C 13.4860000   20.9700000   20.1200000  
C 14.1900000   17.7150000   18.2000000  
C 14.8430000   16.6620000   18.9140000  
N 15.1310000   17.1510000   20.2060000  
O 14.6880000   14.7510000   17.3070000  
C 15.1450000   15.2950000   18.4890000  
O 15.8340000   14.6100000   19.2110000  
O 14.4220000   21.5450000   22.3020000  
O 12.8220000   22.1570000   20.0540000  
H 13.8030000   17.5900000   17.2190000  
H 14.3870000   15.5750000   16.8020000  
H 15.7730000   16.7140000   20.8980000  
H 14.9450000   21.1200000   23.0020000  
H 13.0160000   22.7310000   20.8790000  
C 15.6020000   19.0340000   22.7150000  
C 16.9050000   18.5190000   22.5680000  
C 17.6520000   18.1630000   23.6770000  
C 17.2220000   18.2830000   25.0040000  
C 15.8420000   18.6860000   25.1470000  
C 15.0640000   18.9640000   24.0230000  
C 17.8850000   18.2670000   21.5100000  
C 19.0340000   17.6310000   22.0610000  
N 18.8960000   17.6740000   23.3920000  
O 20.3370000   17.1710000   19.9900000  
C 20.2870000   17.0170000   21.3370000  
O 21.2720000   16.5750000   21.9540000  
O 15.2270000   18.7420000   26.3930000  
O 13.7540000   19.3130000   24.2970000  
H 17.7250000   18.3290000   20.4540000  
H 19.4540000   17.4260000   19.7620000  
H 19.5380000   17.2610000   24.0240000  
H 15.7790000   18.2310000   27.0420000  
H 13.5820000   19.0910000   25.2830000  
C 18.0770000   17.8290000   26.1300000  
C 18.8700000   18.6620000   26.9240000  
C 19.7060000   18.1780000   27.8450000  
C 19.9150000   16.8420000   28.0430000  
C 19.1690000   15.9230000   27.3080000  
C 18.2390000   16.3970000   26.3110000  
C 19.1530000   20.0650000   26.7560000  
C 20.1850000   20.3260000   27.6410000  
N 20.5720000   19.1700000   28.2820000  
O 20.0070000   22.6390000   27.2450000  
C 20.7170000   21.6840000   27.8230000  
O 21.7770000   21.8930000   28.3950000  
O 19.3040000   14.6420000   27.7180000  
O 17.5230000   15.4780000   25.5010000  
H 18.8950000   20.5990000   25.8380000  
H 19.2280000   22.1510000   26.8810000  
H 21.2430000   19.0130000   29.0520000  
H 19.8980000   14.4980000   28.5310000  
H 17.8340000   14.5890000   25.7790000  
H 20.7110000   16.5340000   28.7000000  
