78
001 
C 19.3280000   12.2640000   22.5330000  
C 20.6510000   12.4390000   22.8500000  
C 21.0960000   13.7470000   22.7850000  
C 20.2280000   14.8030000   22.5580000  
C 18.8580000   14.6570000   22.3950000  
C 18.4170000   13.3130000   22.3970000  
C 22.4100000   14.4000000   23.0330000  
C 22.2070000   15.8140000   22.9880000  
N 20.8780000   16.0510000   22.5840000  
O 24.4400000   16.4620000   23.3650000  
C 23.2180000   16.8460000   23.2580000  
O 23.0280000   18.0020000   23.3540000  
O 17.0940000   13.0310000   22.1210000  
O 18.8340000   11.0140000   22.3670000  
H 21.3190000   11.5940000   22.9440000  
H 23.2670000   13.7700000   23.2730000  
H 24.3910000   15.5260000   23.0830000  
H 20.5240000   16.9060000   22.2020000  
H 16.6620000   13.8820000   22.1130000  
H 18.0900000   11.0910000   21.7040000  
C 17.9610000   15.8420000   22.3210000  
C 18.0700000   16.8070000   21.3170000  
C 17.3300000   17.9580000   21.4210000  
C 16.3050000   18.3020000   22.3140000  
C 16.1040000   17.2240000   23.2680000  
C 16.8760000   16.0540000   23.2530000  
C 18.8520000   16.9220000   20.1170000  
C 18.5890000   18.1440000   19.5890000  
N 17.5660000   18.7150000   20.2930000  
O 20.1530000   18.0880000   17.8150000  
C 19.0610000   18.6770000   18.3200000  
O 18.5320000   19.6040000   17.7490000  
O 15.1800000   17.4660000   24.2200000  
O 16.5860000   15.1080000   24.2360000  
H 19.5390000   16.2440000   19.6730000  
H 20.3380000   17.4830000   18.5300000  
H 17.2120000   19.6570000   20.0840000  
H 14.9490000   18.4250000   24.2740000  
H 15.8930000   15.4820000   24.7440000  
C 15.3900000   19.5120000   22.0520000  
C 14.7090000   19.6960000   20.8430000  
C 13.8300000   20.7750000   20.7270000  
C 13.3940000   21.6780000   21.7260000  
C 14.0860000   21.4440000   22.9560000  
C 15.1330000   20.4660000   23.1020000  
C 14.5100000   18.8050000   19.7110000  
C 13.5920000   19.5640000   18.9160000  
N 13.1180000   20.6300000   19.5900000  
O 13.4510000   17.9710000   17.1600000  
C 12.9430000   19.0820000   17.6490000  
O 12.1590000   19.8310000   17.1180000  
O 13.7270000   22.2490000   24.0310000  
O 15.6530000   20.4310000   24.2990000  
H 14.7330000   17.7360000   19.6270000  
H 13.9480000   17.5620000   17.9150000  
H 12.4150000   21.1920000   19.2030000  
H 13.2070000   22.9630000   23.6320000  
H 15.1980000   21.1430000   24.8740000  
C 12.1870000   22.5840000   21.5400000  
C 10.9530000   22.3740000   22.2270000  
C  9.8510000   23.2070000   21.9960000  
C  9.8080000   24.1210000   20.9930000  
C 11.0170000   24.3610000   20.2570000  
C 12.1300000   23.5220000   20.4950000  
C 10.6410000   21.6270000   23.4580000  
C  9.3260000   21.9650000   23.8510000  
N  8.8780000   22.9450000   22.9600000  
O  9.1930000   20.7430000   25.8830000  
C  8.5650000   21.4970000   25.0090000  
O  7.4030000   21.7420000   25.1520000  
O 10.9850000   25.1620000   19.1450000  
O 13.1920000   23.6720000   19.6000000  
H 11.2270000   20.9700000   23.9700000  
H 10.1600000   20.8300000   25.6840000  
H  7.9520000   23.3710000   22.9520000  
H 10.1160000   25.5090000   19.0090000  
H 13.0310000   24.3620000   18.9860000  
H  8.8770000   24.5460000   20.6270000  
