78
001 
C 17.2550000   12.9350000   17.8070000  
C 18.5370000   12.9400000   17.1740000  
C 19.3580000   14.0360000   17.5360000  
C 18.9070000   15.0930000   18.3160000  
C 17.7110000   15.0310000   19.0220000  
C 16.9800000   13.8350000   18.8720000  
C 20.6630000   14.4960000   17.0270000  
C 20.8850000   15.7500000   17.5890000  
N 19.7690000   16.1600000   18.3410000  
O 22.8330000   16.1490000   16.3540000  
C 22.0960000   16.5350000   17.3990000  
O 22.3660000   17.5320000   18.0890000  
O 15.8390000   13.6720000   19.5270000  
O 16.4230000   11.8840000   17.4980000  
H 18.8990000   12.2330000   16.5060000  
H 21.3750000   13.9120000   16.3870000  
H 22.3490000   15.4250000   15.8610000  
H 19.6420000   17.0200000   18.8900000  
H 15.9610000   13.9420000   20.4650000  
H 15.5330000   12.1140000   17.9110000  
C 17.3000000   16.1690000   19.8270000  
C 17.0950000   17.4630000   19.3550000  
C 16.6000000   18.4360000   20.1440000  
C 16.2430000   18.2000000   21.5140000  
C 16.5350000   16.9280000   22.0420000  
C 17.1310000   15.9670000   21.2400000  
C 17.1000000   18.0660000   18.0420000  
C 16.5520000   19.3140000   18.1660000  
N 16.3890000   19.5620000   19.5090000  
O 16.5710000   19.6670000   15.8670000  
C 16.2840000   20.2250000   17.0540000  
O 15.7780000   21.3160000   17.1940000  
O 16.2170000   16.6990000   23.3690000  
O 17.3890000   14.7570000   21.8210000  
H 17.3520000   17.5810000   17.0430000  
H 16.8030000   18.7230000   16.0630000  
H 15.9790000   20.4390000   19.9300000  
H 16.3460000   17.6320000   23.6660000  
H 17.2200000   14.8820000   22.7620000  
C 15.6360000   19.2000000   22.4120000  
C 14.2740000   19.4590000   22.2830000  
C 13.6770000   20.4000000   23.0660000  
C 14.4210000   21.0930000   24.1080000  
C 15.8140000   20.7520000   24.2540000  
C 16.4270000   19.8100000   23.4570000  
C 13.1560000   18.8900000   21.5780000  
C 11.9840000   19.6810000   21.7650000  
N 12.2910000   20.5840000   22.8180000  
O 10.6440000   18.5130000   20.1300000  
C 10.6430000   19.3720000   21.1880000  
O  9.5630000   19.8810000   21.6200000  
O 16.5240000   21.3440000   25.2550000  
O 17.7630000   19.4980000   23.6680000  
H 13.3720000   18.1210000   20.8490000  
H 11.5500000   18.1960000   19.9450000  
H 11.7170000   21.2800000   23.2860000  
H 16.0590000   22.1590000   25.5860000  
H 17.9400000   20.2950000   24.2160000  
C 13.7950000   22.1540000   24.8710000  
C 13.4390000   21.9800000   26.2140000  
C 12.7720000   22.9850000   26.8840000  
C 12.3640000   24.1640000   26.2550000  
C 12.4810000   24.2440000   24.8890000  
C 13.2450000   23.2950000   24.2190000  
C 13.6640000   20.8480000   27.1000000  
C 13.1470000   21.2280000   28.3370000  
N 12.6280000   22.5470000   28.2170000  
O 13.4700000   19.0720000   29.2550000  
C 13.1010000   20.3480000   29.5290000  
O 12.6610000   20.6810000   30.6260000  
O 11.9120000   25.3270000   24.2750000  
O 13.2770000   23.4560000   22.8800000  
H 14.0000000   19.8610000   26.7890000  
H 13.8310000   19.1860000   28.3730000  
H 12.3840000   23.1270000   29.0590000  
H 11.2550000   25.7550000   24.8680000  
H 13.0900000   24.3770000   22.7470000  
H 11.8310000   24.8700000   26.7500000  
