78
001 
C 18.2560000   12.5860000   19.2500000  
C 19.6610000   12.4930000   18.8800000  
C 20.4350000   13.6410000   19.2550000  
C 19.8540000   14.7320000   19.8090000  
C 18.5110000   14.8060000   20.2130000  
C 17.7000000   13.7290000   19.9250000  
C 21.8290000   13.9180000   19.0970000  
C 22.0210000   15.2050000   19.6180000  
N 20.7790000   15.6740000   20.0540000  
O 24.4590000   15.6660000   19.3730000  
C 23.2210000   16.0910000   19.7160000  
O 23.0950000   17.2530000   20.0890000  
O 16.3770000   13.6530000   20.2650000  
O 17.3280000   11.5080000   19.1170000  
H 20.1290000   11.5340000   18.5260000  
H 22.6130000   13.3080000   18.8280000  
H 24.5270000   14.7110000   19.3160000  
H 20.5960000   16.6010000   20.4150000  
H 16.1860000   14.5200000   20.5980000  
H 16.6080000   11.6880000   19.7090000  
C 17.9100000   15.9760000   20.8960000  
C 17.6480000   17.1230000   20.0910000  
C 16.9410000   18.0790000   20.6530000  
C 16.4100000   18.1400000   21.9470000  
C 16.6790000   17.0210000   22.7130000  
C 17.4030000   15.9270000   22.1910000  
C 17.8980000   17.5240000   18.7580000  
C 17.2020000   18.6960000   18.5580000  
N 16.5680000   19.0380000   19.7470000  
O 17.7710000   18.7590000   16.2790000  
C 17.1680000   19.3890000   17.2930000  
O 16.5550000   20.4080000   17.0090000  
O 16.1490000   16.9460000   23.9240000  
O 17.4680000   14.7770000   23.0090000  
H 18.5410000   16.9930000   17.9870000  
H 18.0430000   17.9380000   16.6100000  
H 15.9890000   19.8190000   19.9570000  
H 15.9670000   17.8440000   24.1470000  
H 16.8930000   14.9560000   23.7770000  
C 15.4580000   19.2160000   22.3980000  
C 14.2500000   19.5620000   21.7300000  
C 13.5460000   20.6610000   22.1310000  
C 13.8020000   21.3850000   23.3030000  
C 14.9220000   20.9560000   24.0920000  
C 15.7690000   19.9180000   23.5900000  
C 13.5700000   19.0570000   20.5530000  
C 12.4290000   19.7810000   20.3470000  
N 12.3710000   20.7910000   21.3680000  
O 11.6830000   18.5350000   18.3910000  
C 11.4930000   19.6090000   19.2410000  
O 10.4560000   20.2640000   19.2130000  
O 15.2960000   21.5470000   25.2430000  
O 16.9690000   19.7390000   24.2270000  
H 13.8050000   18.1250000   20.0800000  
H 12.4990000   18.0950000   18.6670000  
H 11.6690000   21.5320000   21.3660000  
H 14.6050000   22.1710000   25.5270000  
H 17.1600000   20.3740000   24.9260000  
C 12.9240000   22.5010000   23.6960000  
C 12.1790000   22.3690000   24.8490000  
C 11.2260000   23.2870000   25.1930000  
C 10.8840000   24.3500000   24.4070000  
C 11.6440000   24.5240000   23.2340000  
C 12.6390000   23.6170000   22.8960000  
C 12.1730000   21.4390000   25.9550000  
C 11.0790000   21.8240000   26.8310000  
N 10.5640000   23.0180000   26.3910000  
O 11.5160000   20.2030000   28.4780000  
C 10.8470000   21.3290000   28.1970000  
O 10.1520000   21.8590000   29.0190000  
O 11.4150000   25.7290000   22.5290000  
O 13.0490000   23.6160000   21.5810000  
H 12.7770000   20.4770000   26.0040000  
H 12.0200000   20.0180000   27.6650000  
H  9.8830000   23.5740000   26.8660000  
H 10.6810000   26.3350000   22.7480000  
H 12.3690000   24.2300000   21.1510000  
H 10.2090000   25.0370000   24.8200000  
