78
001 
C 18.4060000   16.4860000   27.8820000  
C 19.5640000   15.7300000   27.7950000  
C 20.1580000   15.4260000   26.5050000  
C 19.5490000   15.9620000   25.3900000  
C 18.3360000   16.7720000   25.3940000  
C 17.8420000   17.0290000   26.7300000  
C 21.3300000   14.7290000   26.1000000  
C 21.4190000   14.9110000   24.7250000  
N 20.3020000   15.6540000   24.2500000  
O 23.1980000   13.4770000   24.5400000  
C 22.4430000   14.2910000   23.8680000  
O 22.6150000   14.4160000   22.6790000  
O 16.6590000   17.7330000   26.8310000  
O 17.7750000   16.7690000   29.0490000  
H 19.9870000   15.2640000   28.7270000  
H 22.1440000   14.4210000   26.7720000  
H 22.8000000   13.3580000   25.3840000  
H 20.1210000   15.8820000   23.2780000  
H 16.7220000   18.4230000   26.1620000  
H 16.9430000   17.2760000   28.8100000  
C 17.7920000   17.3420000   24.1470000  
C 17.1550000   16.5820000   23.1850000  
C 16.4700000   17.1110000   22.1610000  
C 16.3490000   18.5200000   21.9770000  
C 17.0560000   19.3220000   22.8760000  
C 17.7820000   18.7310000   23.9840000  
C 17.0630000   15.1430000   23.0250000  
C 16.2410000   14.8990000   21.8980000  
N 15.9450000   16.1710000   21.2930000  
O 16.4240000   12.4760000   21.8590000  
C 15.8290000   13.6090000   21.3740000  
O 14.9990000   13.5240000   20.4650000  
O 16.9280000   20.6650000   22.7610000  
O 18.3080000   19.5250000   24.9940000  
H 17.4820000   14.3810000   23.6370000  
H 17.2540000   12.7000000   22.2750000  
H 15.5750000   16.3240000   20.2950000  
H 16.5060000   20.8010000   21.9390000  
H 17.8720000   20.3920000   24.9940000  
C 15.5410000   19.1800000   20.9920000  
C 14.2260000   19.5250000   21.2660000  
C 13.4040000   20.0430000   20.2820000  
C 13.8350000   20.3620000   18.9440000  
C 15.2350000   20.0490000   18.7190000  
C 16.0500000   19.4050000   19.6640000  
C 13.4130000   19.3930000   22.4500000  
C 12.1690000   19.8600000   22.0780000  
N 12.1260000   20.2530000   20.7540000  
O 11.2520000   19.4900000   24.1740000  
C 11.0170000   19.8280000   22.9310000  
O  9.8890000   20.1580000   22.5670000  
O 15.7650000   20.3470000   17.5040000  
O 17.3460000   19.0720000   19.3460000  
H 13.5640000   18.8300000   23.3980000  
H 12.0340000   18.9150000   24.2870000  
H 11.3040000   20.5670000   20.3290000  
H 15.0980000   20.7820000   16.9390000  
H 17.5460000   19.4600000   18.4270000  
C 13.0800000   21.0310000   17.8850000  
C 12.6840000   22.3340000   18.1080000  
C 11.7600000   22.9420000   17.2040000  
C 11.3190000   22.2910000   16.0560000  
C 11.9220000   21.1020000   15.7470000  
C 12.7860000   20.4690000   16.6320000  
C 12.9230000   23.2690000   19.1740000  
C 12.2250000   24.4630000   18.8720000  
N 11.5880000   24.2960000   17.6230000  
O 12.8980000   25.5460000   20.8740000  
C 12.2330000   25.7120000   19.6510000  
O 11.6150000   26.7100000   19.3940000  
O 11.6990000   20.4920000   14.5550000  
O 13.3100000   19.2120000   16.2790000  
H 13.4420000   22.9770000   20.0830000  
H 12.9870000   24.5720000   20.9410000  
H 11.0170000   24.9420000   17.1390000  
H 10.7900000   20.7130000   14.2950000  
H 13.1560000   19.1370000   15.2760000  
H 10.6280000   22.6790000   15.3250000  
