78
001 
C 18.8120000   13.9580000   26.7570000  
C 18.4960000   14.5260000   27.9980000  
C 17.6010000   15.5810000   28.0120000  
C 16.9630000   16.0020000   26.9260000  
C 17.2480000   15.4530000   25.6580000  
C 18.1070000   14.3140000   25.5890000  
C 17.0280000   16.1780000   29.0660000  
C 16.0320000   17.0520000   28.5320000  
N 16.0090000   16.9360000   27.1700000  
O 15.3980000   18.1050000   30.5970000  
C 15.1960000   18.0010000   29.2510000  
O 14.3400000   18.7410000   28.7290000  
O 18.2940000   13.6900000   24.4700000  
O 19.7160000   12.9600000   26.7590000  
H 18.9920000   14.1720000   28.9270000  
H 17.5190000   16.1700000   30.0470000  
H 16.2020000   17.6200000   30.8620000  
H 15.4660000   17.4490000   26.5060000  
H 18.0290000   14.2390000   23.7460000  
H 19.8670000   12.7580000   25.8270000  
C 16.7420000   16.2010000   24.4020000  
C 17.1070000   17.5680000   24.1600000  
C 16.4620000   18.1510000   23.0540000  
C 15.6990000   17.5530000   22.0850000  
C 15.4110000   16.2120000   22.3290000  
C 15.8160000   15.5720000   23.5340000  
C 17.8120000   18.5940000   24.8840000  
C 17.5790000   19.7620000   24.1590000  
N 16.6900000   19.4670000   23.0800000  
O 18.9450000   21.0720000   25.5260000  
C 18.2600000   21.0390000   24.3520000  
O 18.1750000   22.0360000   23.5900000  
O 14.4540000   15.5990000   21.4690000  
O 15.2690000   14.3190000   23.8530000  
H 18.5540000   18.4110000   25.6700000  
H 18.7100000   20.3790000   26.0950000  
H 16.3270000   20.0990000   22.3340000  
H 14.0200000   16.3720000   21.0380000  
H 14.5920000   14.0120000   23.2030000  
C 15.0980000   18.3910000   21.0300000  
C 15.8410000   19.2190000   20.1310000  
C 15.2950000   20.0720000   19.2440000  
C 13.8870000   20.2580000   19.0910000  
C 13.1030000   19.5520000   20.0530000  
C 13.7120000   18.6540000   21.0060000  
C 17.2870000   19.2820000   19.8970000  
C 17.5100000   20.2380000   18.9080000  
N 16.2480000   20.7740000   18.5100000  
O 19.9400000   19.9990000   18.9890000  
C 18.8500000   20.6050000   18.4250000  
O 18.9640000   21.4310000   17.5090000  
O 11.7530000   19.7890000   20.0740000  
O 12.9170000   18.1240000   21.9090000  
H 17.9750000   18.5650000   20.2440000  
H 19.4240000   19.5490000   19.7280000  
H 16.1480000   21.5120000   17.8340000  
H 11.6260000   20.6080000   19.5260000  
H 12.0770000   18.6540000   21.9770000  
C 13.3760000   21.2580000   18.1020000  
C 13.3040000   20.9670000   16.7440000  
C 12.6940000   21.8530000   15.8970000  
C 12.1480000   23.0830000   16.2830000  
C 12.1270000   23.3810000   17.6490000  
C 12.8130000   22.4950000   18.5130000  
C 13.8810000   19.9250000   15.9870000  
C 13.6100000   20.1230000   14.6980000  
N 12.8780000   21.3970000   14.5730000  
O 14.4590000   17.9930000   14.0580000  
C 13.9080000   19.1420000   13.6370000  
O 13.7550000   19.3000000   12.4590000  
O 11.4590000   24.4830000   18.0810000  
O 12.7260000   22.8220000   19.8510000  
H 14.3540000   19.0940000   16.4730000  
H 14.5610000   18.1920000   15.0100000  
H 12.5670000   21.8260000   13.7630000  
H 11.1370000   24.8620000   17.2300000  
H 12.3140000   23.6890000   19.9010000  
H 11.7000000   23.8080000   15.6370000  
