78
001 
C 15.0420000   13.7710000   15.6960000  
C 16.1450000   14.2720000   14.9450000  
C 16.9230000   15.3520000   15.4320000  
C 16.6930000   15.8340000   16.6760000  
C 15.6540000   15.3600000   17.5230000  
C 14.8190000   14.3250000   17.0310000  
C 18.1730000   15.9120000   14.9390000  
C 18.5530000   16.8380000   15.9120000  
N 17.5840000   16.8170000   16.9630000  
O 20.5720000   17.4200000   14.9180000  
C 19.7310000   17.6630000   15.9540000  
O 19.9870000   18.4170000   16.8630000  
O 13.7370000   13.9130000   17.7620000  
O 14.1540000   12.8390000   15.2190000  
H 16.2380000   13.7340000   13.9260000  
H 18.7080000   15.6440000   14.0170000  
H 20.1330000   16.7590000   14.4170000  
H 17.4960000   17.5290000   17.7030000  
H 13.7220000   14.3190000   18.6520000  
H 13.8850000   12.3050000   15.9570000  
C 15.5830000   15.9940000   18.8310000  
C 15.4130000   17.4220000   18.8760000  
C 15.4080000   18.1140000   20.1100000  
C 15.6890000   17.4980000   21.3280000  
C 15.9010000   16.0880000   21.2940000  
C 15.8390000   15.3820000   20.1060000  
C 15.0100000   18.4480000   17.9010000  
C 14.9400000   19.6690000   18.5780000  
N 15.0420000   19.4310000   19.9830000  
O 14.5890000   21.1340000   16.6750000  
C 14.5440000   20.9940000   17.9910000  
O 14.2250000   21.9340000   18.7050000  
O 16.4200000   15.4180000   22.3620000  
O 16.1070000   14.0030000   20.0190000  
H 14.9320000   18.2750000   16.8090000  
H 15.0290000   20.3250000   16.2200000  
H 15.0990000   20.1190000   20.7230000  
H 16.3720000   16.0720000   23.1190000  
H 16.4800000   13.6730000   20.8890000  
C 15.8560000   18.3080000   22.6140000  
C 14.7710000   19.1020000   23.0080000  
C 14.9700000   20.0310000   23.9950000  
C 16.1560000   20.1980000   24.7150000  
C 17.2620000   19.4600000   24.2880000  
C 17.1300000   18.5130000   23.2760000  
C 13.3680000   19.1700000   22.5560000  
C 12.7790000   20.0300000   23.4850000  
N 13.7630000   20.5690000   24.3610000  
O 10.4850000   19.8470000   22.7590000  
C 11.3600000   20.4690000   23.6020000  
O 10.9830000   21.2170000   24.4320000  
O 18.4670000   19.7660000   24.8700000  
O 18.2820000   17.9320000   22.8620000  
H 12.9430000   18.6870000   21.7140000  
H 10.9560000   19.1230000   22.2680000  
H 13.7050000   21.5050000   24.8580000  
H 18.3550000   20.6100000   25.3830000  
H 19.0300000   18.2770000   23.3780000  
C 16.3520000   21.2920000   25.7730000  
C 15.6410000   21.2800000   27.0020000  
C 15.8300000   22.2610000   27.9950000  
C 16.8160000   23.2620000   27.8280000  
C 17.4980000   23.4000000   26.6390000  
C 17.2520000   22.4580000   25.6030000  
C 14.8130000   20.2720000   27.5830000  
C 14.3900000   20.7530000   28.8300000  
N 15.0000000   21.9880000   29.0590000  
O 12.7010000   19.1650000   29.1590000  
C 13.3640000   20.2330000   29.7310000  
O 13.1330000   20.6980000   30.8670000  
O 18.2430000   24.5290000   26.5420000  
O 17.7900000   22.7380000   24.4000000  
H 14.3420000   19.4290000   27.1990000  
H 13.1900000   18.9580000   28.3640000  
H 14.8420000   22.5080000   29.8680000  
H 18.5230000   24.6840000   27.4820000  
H 18.1880000   23.6170000   24.5210000  
H 16.8760000   24.0230000   28.6380000  
