78
001 
C 16.6690000   17.7990000   14.6710000  
C 15.4470000   17.9630000   13.9370000  
C 14.2430000   18.2340000   14.5820000  
C 14.2650000   18.1360000   15.9400000  
C 15.3920000   18.0020000   16.8160000  
C 16.6320000   17.8710000   16.0630000  
C 12.8440000   18.4700000   14.2130000  
C 12.0860000   18.6320000   15.3890000  
N 12.9750000   18.3060000   16.4070000  
O 10.0500000   18.8480000   14.3720000  
C 10.6320000   18.8730000   15.5640000  
O 10.0250000   19.0210000   16.5890000  
O 17.7630000   17.7630000   16.8270000  
O 17.8390000   17.8230000   13.9620000  
H 15.4400000   17.9820000   12.8370000  
H 12.3960000   18.5970000   13.2530000  
H 10.8160000   18.5960000   13.8470000  
H 12.6430000   18.0620000   17.3430000  
H 17.4340000   17.8020000   17.7630000  
H 18.6040000   17.6630000   14.5670000  
C 15.3190000   18.1630000   18.3410000  
C 14.6650000   17.2560000   19.1650000  
C 14.5700000   17.4040000   20.5090000  
C 15.2100000   18.4810000   21.1570000  
C 15.6760000   19.5770000   20.3850000  
C 15.8690000   19.3140000   18.9710000  
C 13.9870000   15.9800000   18.8870000  
C 13.7070000   15.3990000   20.1440000  
N 13.9880000   16.3350000   21.1440000  
O 13.1190000   13.1930000   19.4040000  
C 13.2390000   14.0030000   20.4470000  
O 13.1450000   13.4960000   21.5200000  
O 16.0810000   20.7570000   20.8940000  
O 16.4660000   20.2910000   18.3020000  
H 13.9320000   15.5050000   17.9270000  
H 13.2830000   13.7510000   18.6530000  
H 13.9260000   16.2290000   22.1330000  
H 16.3150000   20.7740000   21.8890000  
H 16.3910000   21.1850000   18.7510000  
C 15.3980000   18.5720000   22.5860000  
C 16.7190000   18.7290000   23.0210000  
C 16.9550000   19.0380000   24.3030000  
C 16.0180000   18.9040000   25.3690000  
C 14.6880000   18.7210000   24.8520000  
C 14.3390000   18.6560000   23.4990000  
C 18.0350000   18.6490000   22.3840000  
C 18.9760000   18.9130000   23.3570000  
N 18.3150000   19.0040000   24.6010000  
O 20.8920000   18.8260000   21.9400000  
C 20.4220000   19.0450000   23.2200000  
O 21.0950000   19.1360000   24.1910000  
O 13.6540000   18.7970000   25.7180000  
O 13.0420000   18.6380000   23.1150000  
H 18.3110000   18.6570000   21.3150000  
H 20.1930000   18.7750000   21.2550000  
H 18.8170000   19.0760000   25.5240000  
H 14.0110000   19.0350000   26.5740000  
H 12.5110000   18.7340000   23.9980000  
C 16.3040000   19.1580000   26.8020000  
C 16.8880000   20.3840000   27.1820000  
C 17.2060000   20.6640000   28.4940000  
C 16.9310000   19.7180000   29.4520000  
C 16.3230000   18.5200000   29.1350000  
C 16.0070000   18.2600000   27.8010000  
C 17.0860000   21.6420000   26.4310000  
C 17.4930000   22.5970000   27.3270000  
N 17.6710000   22.0160000   28.6050000  
O 17.4370000   24.3370000   25.8560000  
C 17.6930000   23.9950000   27.1200000  
O 17.8270000   24.8440000   28.0160000  
O 16.0840000   17.5070000   30.0160000  
O 15.4350000   17.0820000   27.3970000  
H 16.7910000   21.7940000   25.4100000  
H 17.5610000   23.5180000   25.3470000  
H 17.9310000   22.4490000   29.5050000  
H 16.5190000   17.8230000   30.7690000  
H 15.8360000   16.3780000   27.8550000  
H 17.1410000   19.9920000   30.4350000  
