78
001 
C 13.0570000   14.8230000   15.9400000  
C 13.6460000   15.2530000   14.7640000  
C 14.5670000   16.2810000   14.8120000  
C 14.9450000   16.8210000   15.9890000  
C 14.3190000   16.5240000   17.2470000  
C 13.3310000   15.4350000   17.1850000  
C 15.4320000   16.9470000   13.7780000  
C 16.2540000   17.8370000   14.4360000  
N 16.0160000   17.7180000   15.8150000  
O 17.3240000   18.5920000   12.4020000  
C 17.2500000   18.7210000   13.7470000  
O 18.0310000   19.5190000   14.2600000  
O 12.7140000   14.8810000   18.2150000  
O 12.2080000   13.7940000   15.8460000  
H 13.4260000   14.7770000   13.8380000  
H 15.3780000   16.8090000   12.6550000  
H 16.8240000   17.7590000   12.3600000  
H 16.2770000   18.4490000   16.5140000  
H 12.9740000   15.3230000   19.0560000  
H 11.7530000   13.6060000   16.7090000  
C 14.7930000   17.1410000   18.5240000  
C 14.3040000   18.3660000   19.0380000  
C 14.8650000   18.8570000   20.1770000  
C 15.9030000   18.3300000   20.9490000  
C 16.2740000   17.0120000   20.4360000  
C 15.7410000   16.4780000   19.2350000  
C 13.4310000   19.3600000   18.4410000  
C 13.6080000   20.4710000   19.2480000  
N 14.5840000   20.1630000   20.2640000  
O 11.8760000   21.7860000   18.3070000  
C 12.9720000   21.7440000   19.1350000  
O 13.1020000   22.7610000   19.8520000  
O 17.1800000   16.2190000   21.1130000  
O 16.1980000   15.3100000   18.7940000  
H 12.8810000   19.2220000   17.5610000  
H 11.7440000   20.7730000   18.1000000  
H 14.7550000   20.7370000   21.1250000  
H 17.6450000   16.6990000   21.8390000  
H 17.0400000   15.0250000   19.2060000  
C 16.4200000   18.9060000   22.2460000  
C 15.4910000   19.2450000   23.2940000  
C 15.9290000   19.8240000   24.4550000  
C 17.3010000   20.0280000   24.8280000  
C 18.2860000   19.6100000   23.8050000  
C 17.8210000   19.0400000   22.5650000  
C 14.0070000   19.1820000   23.3920000  
C 13.6700000   19.6010000   24.6720000  
N 14.8440000   19.9380000   25.3380000  
O 11.2960000   19.5070000   24.1740000  
C 12.2560000   19.7010000   25.1540000  
O 11.9610000   20.0420000   26.2810000  
O 19.6340000   19.6700000   23.9910000  
O 18.6680000   18.7250000   21.5270000  
H 13.3290000   18.8040000   22.6360000  
H 11.6890000   19.3420000   23.2880000  
H 14.8160000   20.4270000   26.1770000  
H 19.7840000   20.1030000   24.8910000  
H 19.5670000   18.6320000   21.8390000  
C 17.7380000   20.5360000   26.1290000  
C 17.3800000   19.8760000   27.3660000  
C 17.7830000   20.3920000   28.6070000  
C 18.3780000   21.6260000   28.7450000  
C 18.6300000   22.3740000   27.5410000  
C 18.4100000   21.7980000   26.2570000  
C 16.6230000   18.6780000   27.5870000  
C 16.6490000   18.4770000   29.0060000  
N 17.3260000   19.5160000   29.5670000  
O 15.6720000   16.2790000   28.8230000  
C 16.1420000   17.2310000   29.7220000  
O 16.1020000   16.9110000   30.8820000  
O 19.3980000   23.4850000   27.5940000  
O 18.9480000   22.5010000   25.1550000  
H 16.2840000   17.9940000   26.8440000  
H 15.8080000   16.7330000   28.0110000  
H 17.5050000   19.5800000   30.5420000  
H 19.6390000   23.5180000   28.5340000  
H 19.6550000   23.0610000   25.5170000  
H 18.6460000   22.0450000   29.7490000  
