78
001 
C 18.3610000   12.0660000   21.0300000  
C 19.5220000   11.8890000   21.8300000  
C 19.8710000   12.7950000   22.7700000  
C 19.1980000   13.9670000   22.8870000  
C 18.0220000   14.3290000   22.1170000  
C 17.5920000   13.2990000   21.2200000  
C 20.9420000   12.8040000   23.7970000  
C 20.8280000   13.9860000   24.4610000  
N 19.7440000   14.6700000   23.9240000  
O 22.6360000   13.6980000   25.8680000  
C 21.5940000   14.5350000   25.5450000  
O 21.3670000   15.6200000   26.0460000  
O 16.4390000   13.5940000   20.5210000  
O 17.9880000   11.0720000   20.2940000  
H 20.0780000   10.9290000   21.7880000  
H 21.5170000   11.9840000   24.2170000  
H 22.5570000   12.9750000   25.2200000  
H 19.3960000   15.6100000   24.2560000  
H 16.2900000   14.5300000   20.7230000  
H 17.0330000   10.9590000   20.2520000  
C 17.2810000   15.6330000   22.3770000  
C 17.9860000   16.8660000   22.1070000  
C 17.3580000   18.0240000   22.2230000  
C 15.9610000   18.1740000   22.4680000  
C 15.2480000   17.0130000   22.8300000  
C 15.9240000   15.7710000   22.7850000  
C 19.3210000   17.1280000   21.6440000  
C 19.3520000   18.4700000   21.3210000  
N 18.1480000   19.0380000   21.7920000  
O 21.5650000   18.4810000   20.3700000  
C 20.4790000   19.2010000   20.6040000  
O 20.5000000   20.3880000   20.3610000  
O 13.9660000   17.0700000   23.1820000  
O 15.2840000   14.6790000   23.1150000  
H 20.0540000   16.3150000   21.5180000  
H 21.4030000   17.6500000   20.9350000  
H 17.9480000   20.0050000   21.8580000  
H 13.7060000   17.9760000   23.4070000  
H 14.3800000   14.9430000   22.9570000  
C 15.2320000   19.4830000   22.5090000  
C 15.0240000   20.1120000   21.2790000  
C 14.1970000   21.2030000   21.0940000  
C 13.4690000   21.7840000   22.1270000  
C 13.7120000   21.1630000   23.3980000  
C 14.4650000   20.0190000   23.5900000  
C 15.4650000   19.7310000   19.9680000  
C 14.8460000   20.6050000   19.0460000  
N 14.0090000   21.5120000   19.7680000  
O 15.8280000   19.5690000   17.0640000  
C 15.0880000   20.5930000   17.5570000  
O 14.7460000   21.4910000   16.8620000  
O 13.1220000   21.7180000   24.4990000  
O 14.5690000   19.5090000   24.8180000  
H 16.0960000   18.8610000   19.7610000  
H 16.0310000   18.9940000   17.8460000  
H 13.4170000   22.2360000   19.4360000  
H 12.5550000   22.4800000   24.2830000  
H 14.1340000   20.0490000   25.4780000  
C 12.5930000   22.9880000   21.8350000  
C 11.3830000   22.8810000   21.1020000  
C 10.6790000   23.9780000   20.7090000  
C 10.9560000   25.2690000   21.2450000  
C 12.0590000   25.3600000   22.1020000  
C 12.8880000   24.2470000   22.3120000  
C 10.7710000   21.7430000   20.5470000  
C  9.5080000   22.2110000   20.1080000  
N  9.5510000   23.6480000   20.0460000  
O  8.5400000   20.1490000   19.9110000  
C  8.3550000   21.3780000   19.6500000  
O  7.3260000   21.8220000   19.0930000  
O 12.4090000   26.5740000   22.5620000  
O 14.0540000   24.5020000   22.8940000  
H 11.1180000   20.7410000   20.6890000  
H  9.4220000   20.2210000   20.0610000  
H  8.6480000   24.1810000   19.8600000  
H 12.0400000   27.2290000   21.9670000  
H 14.1850000   25.4830000   22.9610000  
H 10.4490000   26.2110000   20.9610000  
