78
001 
C 16.2790000   16.8720000   28.6800000  
C 17.5440000   16.6270000   29.1420000  
C 18.6090000   16.6860000   28.1790000  
C 18.3450000   17.0010000   26.8540000  
C 17.0940000   17.4710000   26.3790000  
C 16.0430000   17.3690000   27.3490000  
C 19.9970000   16.4850000   28.2640000  
C 20.5150000   16.6990000   26.9290000  
N 19.5030000   17.0650000   26.0810000  
O 22.8140000   16.5040000   27.5720000  
C 21.9500000   16.7240000   26.5210000  
O 22.3270000   16.8970000   25.3640000  
O 14.7700000   17.6590000   26.9340000  
O 15.2290000   16.7270000   29.5220000  
H 17.7070000   16.2500000   30.1830000  
H 20.5700000   16.1450000   29.0990000  
H 22.1840000   16.4220000   28.3700000  
H 19.4630000   17.1100000   25.0460000  
H 14.9680000   17.8580000   26.0060000  
H 14.4680000   16.8910000   28.9660000  
C 16.8820000   17.9140000   24.9410000  
C 16.9760000   16.8990000   23.9220000  
C 16.7350000   17.2580000   22.6230000  
C 16.2030000   18.4940000   22.2250000  
C 16.3170000   19.5460000   23.1210000  
C 16.6030000   19.2530000   24.5040000  
C 17.2800000   15.4340000   23.9430000  
C 16.9480000   15.0040000   22.6210000  
N 16.6410000   16.1060000   21.8570000  
O 17.1550000   12.6170000   23.0310000  
C 16.9560000   13.5650000   22.1530000  
O 16.7740000   13.1990000   21.0360000  
O 16.0670000   20.8190000   22.6950000  
O 16.6210000   20.2510000   25.4580000  
H 17.7190000   14.7290000   24.7240000  
H 17.0410000   12.8960000   23.9140000  
H 16.4460000   16.0670000   20.9180000  
H 15.8030000   20.6250000   21.7610000  
H 16.7840000   21.0140000   24.9060000  
C 15.7360000   18.7950000   20.8190000  
C 14.4130000   19.1700000   20.5400000  
C 13.9890000   19.6730000   19.3780000  
C 14.7390000   19.6640000   18.1840000  
C 16.0840000   19.1560000   18.3850000  
C 16.5590000   18.7490000   19.6930000  
C 13.2780000   19.1940000   21.4270000  
C 12.2280000   19.6690000   20.6810000  
N 12.6260000   19.8800000   19.3490000  
O 10.7810000   19.5860000   22.4570000  
C 10.9140000   19.9130000   21.1720000  
O  9.9970000   20.2350000   20.5020000  
O 16.9410000   19.0710000   17.3360000  
O 17.8400000   18.2630000   19.8250000  
H 13.1590000   18.7530000   22.4320000  
H 11.4710000   18.9680000   22.5580000  
H 12.1610000   20.2220000   18.5190000  
H 16.3290000   19.1710000   16.5890000  
H 18.2760000   18.4780000   18.9860000  
C 14.1570000   20.1580000   16.8790000  
C 13.6790000   21.4640000   16.8420000  
C 13.1630000   22.0810000   15.6830000  
C 12.9930000   21.2910000   14.6080000  
C 13.4050000   19.9570000   14.5990000  
C 14.1080000   19.3910000   15.6730000  
C 13.6370000   22.4440000   17.8970000  
C 13.0500000   23.5780000   17.3140000  
N 12.6490000   23.3110000   15.9530000  
O 12.9930000   24.7690000   19.4100000  
C 12.5610000   24.7010000   18.1340000  
O 11.7060000   25.5080000   17.7120000  
O 13.2730000   19.1630000   13.5560000  
O 14.6410000   18.1080000   15.6470000  
H 14.1500000   22.3070000   18.8920000  
H 13.7210000   24.1590000   19.4910000  
H 12.0910000   23.9770000   15.4500000  
H 12.6520000   19.5010000   12.9050000  
H 14.4440000   17.5860000   14.8450000  
H 12.6060000   21.7080000   13.6970000  
