78
001 
C 15.3660000   13.0110000   16.9120000  
C 16.4510000   13.0520000   16.0090000  
C 17.4120000   14.0880000   16.2250000  
C 17.2640000   14.9910000   17.2320000  
C 16.2120000   14.9550000   18.2380000  
C 15.2980000   13.8900000   18.0660000  
C 18.5550000   14.4650000   15.4470000  
C 19.1620000   15.5330000   16.1250000  
N 18.3550000   15.8910000   17.2800000  
O 21.0920000   15.7910000   14.8320000  
C 20.4400000   16.2450000   15.9220000  
O 20.8870000   17.0740000   16.7340000  
O 14.2790000   13.6990000   18.8930000  
O 14.3670000   12.0680000   16.7630000  
H 16.4290000   12.4190000   15.0300000  
H 18.8440000   13.9260000   14.5340000  
H 20.5020000   15.1150000   14.5070000  
H 18.5060000   16.7410000   17.8710000  
H 14.4950000   14.2090000   19.6960000  
H 13.7160000   12.2200000   17.4800000  
C 16.2510000   15.9640000   19.3640000  
C 16.2550000   17.3690000   19.0770000  
C 16.3800000   18.2560000   20.1010000  
C 16.2380000   17.9260000   21.4600000  
C 16.1790000   16.5480000   21.7890000  
C 16.2930000   15.5570000   20.7480000  
C 16.2370000   18.1280000   17.8370000  
C 16.3900000   19.4960000   18.1620000  
N 16.3560000   19.5550000   19.5820000  
O 15.9470000   20.4860000   16.0350000  
C 16.3080000   20.6410000   17.2940000  
O 16.6300000   21.7190000   17.6930000  
O 16.0760000   16.0890000   23.0920000  
O 16.2370000   14.2610000   21.0800000  
H 16.0680000   17.6980000   16.9230000  
H 15.9990000   19.4870000   15.9000000  
H 16.5330000   20.3960000   20.1130000  
H 16.5440000   16.8320000   23.5180000  
H 16.0840000   14.2430000   22.0550000  
C 16.0540000   19.0050000   22.5250000  
C 14.9260000   19.8290000   22.5610000  
C 14.8210000   20.7570000   23.5970000  
C 15.6640000   20.9200000   24.7250000  
C 16.8440000   20.1160000   24.5920000  
C 17.0560000   19.1840000   23.5060000  
C 13.7390000   20.0360000   21.7080000  
C 13.0290000   21.0500000   22.2240000  
N 13.6440000   21.4360000   23.4570000  
O 11.0910000   20.8300000   20.9880000  
C 11.7030000   21.4980000   21.9310000  
O 11.1040000   22.3110000   22.5490000  
O 17.7890000   20.3750000   25.5350000  
O 18.2050000   18.4700000   23.4940000  
H 13.3890000   19.3840000   20.8790000  
H 11.7560000   20.1680000   20.6190000  
H 13.4360000   22.2540000   23.9970000  
H 17.3690000   20.8470000   26.2950000  
H 18.5320000   18.5270000   24.4130000  
C 15.3660000   21.8350000   25.8850000  
C 14.5540000   21.4930000   26.8920000  
C 14.1940000   22.3840000   27.8570000  
C 14.7040000   23.6870000   27.8890000  
C 15.5640000   24.0850000   26.8860000  
C 15.8760000   23.1730000   25.8520000  
C 13.8640000   20.2290000   27.1970000  
C 13.1260000   20.5470000   28.4050000  
N 13.2590000   21.8740000   28.7030000  
O 11.9920000   18.5710000   28.6090000  
C 12.1690000   19.7320000   29.1640000  
O 11.5410000   20.0670000   30.0760000  
O 16.0520000   25.3470000   26.9200000  
O 16.4720000   23.7130000   24.7740000  
H 13.8840000   19.2950000   26.6570000  
H 12.6700000   18.6100000   27.9180000  
H 12.8950000   22.2790000   29.5680000  
H 15.8700000   25.7930000   27.7810000  
H 16.5760000   24.6410000   25.0320000  
H 14.3150000   24.4130000   28.6020000  
