78
001 
C  9.9240000   21.0860000   25.4970000  
C 10.2980000   21.7670000   26.6940000  
C 11.6300000   21.9670000   26.9260000  
C 12.5980000   21.3580000   26.1960000  
C 12.3140000   20.6840000   24.9700000  
C 10.9210000   20.6200000   24.6420000  
C 12.2490000   22.6360000   28.0640000  
C 13.6390000   22.4290000   27.8570000  
N 13.8480000   21.6710000   26.6960000  
O 14.3720000   23.5350000   29.7940000  
C 14.7570000   22.7860000   28.7730000  
O 15.8760000   22.3070000   28.6070000  
O 10.5310000   19.8720000   23.5270000  
O  8.6300000   20.9070000   25.1360000  
H  9.5720000   22.0040000   27.3440000  
H 11.7350000   23.0490000   28.9050000  
H 13.4620000   23.6960000   29.6750000  
H 14.7370000   21.3740000   26.3690000  
H 11.3740000   19.7360000   22.9880000  
H  8.6930000   20.3500000   24.3350000  
C 13.4000000   20.1770000   24.0760000  
C 14.2900000   19.1130000   24.4440000  
C 15.2640000   18.6500000   23.5740000  
C 15.3600000   19.0070000   22.2560000  
C 14.3870000   19.9810000   21.8270000  
C 13.4120000   20.5560000   22.7030000  
C 14.5620000   18.4590000   25.6920000  
C 15.6530000   17.6290000   25.4910000  
N 15.9590000   17.6120000   24.1140000  
O 16.1800000   17.2390000   27.8500000  
C 16.4400000   16.9140000   26.5750000  
O 17.2690000   16.0760000   26.3470000  
O 14.3910000   20.3760000   20.5200000  
O 12.5580000   21.5280000   22.2400000  
H 13.9860000   18.5730000   26.5900000  
H 15.5690000   18.0090000   27.8090000  
H 16.6030000   16.9320000   23.7770000  
H 15.2580000   20.1240000   20.1010000  
H 12.9910000   21.9970000   21.4570000  
C 16.3900000   18.4370000   21.3740000  
C 16.0580000   17.2260000   20.7220000  
C 16.8940000   16.7890000   19.7020000  
C 17.9640000   17.5100000   19.2170000  
C 18.3310000   18.7320000   19.8230000  
C 17.5280000   19.1900000   20.9310000  
C 14.9960000   16.2250000   20.7640000  
C 15.2100000   15.2410000   19.7700000  
N 16.3510000   15.6420000   19.0510000  
O 13.4670000   13.7400000   20.2980000  
C 14.4390000   14.0620000   19.4760000  
O 14.6780000   13.2560000   18.5980000  
O 19.4540000   19.4220000   19.4980000  
O 17.8860000   20.3360000   21.6130000  
H 14.1990000   16.1800000   21.5380000  
H 13.6750000   14.1430000   21.1790000  
H 16.6700000   15.1260000   18.1940000  
H 19.7680000   18.9800000   18.6700000  
H 18.7050000   20.5910000   21.1480000  
C 18.6160000   17.0190000   17.9870000  
C 18.6110000   17.7560000   16.7980000  
C 19.2010000   17.2120000   15.6790000  
C 19.7900000   15.9310000   15.6660000  
C 19.9680000   15.2360000   16.8180000  
C 19.4010000   15.7710000   17.9790000  
C 18.1200000   19.1080000   16.4500000  
C 18.4460000   19.3270000   15.1040000  
N 19.0800000   18.1470000   14.6070000  
O 17.6700000   21.5480000   15.0410000  
C 18.1010000   20.5070000   14.2680000  
O 18.2940000   20.5120000   13.0590000  
O 20.8650000   14.1680000   16.8630000  
O 19.6060000   15.1550000   19.1740000  
H 17.6360000   19.8000000   17.1450000  
H 17.5690000   21.2300000   15.9580000  
H 19.0790000   17.9920000   13.6100000  
H 21.7230000   14.3450000   16.4020000  
H 20.3520000   14.5140000   19.0880000  
H 20.2820000   15.5240000   14.7350000  
