78
001 
C 20.2210000   14.8940000   17.1370000  
C 19.4300000   14.3590000   16.0630000  
C 18.1070000   14.7680000   15.9540000  
C 17.6380000   15.6000000   16.8460000  
C 18.3620000   16.2650000   17.9510000  
C 19.7400000   15.8950000   18.0390000  
C 17.0890000   14.5860000   14.9920000  
C 16.0590000   15.4440000   15.3010000  
N 16.3440000   16.0040000   16.5440000  
O 14.5920000   14.9760000   13.4210000  
C 14.8090000   15.7430000   14.5050000  
O 13.9130000   16.4930000   14.8890000  
O 20.5200000   16.4170000   19.0490000  
O 21.5060000   14.4860000   17.2990000  
H 19.8630000   13.6380000   15.3770000  
H 17.1930000   14.0170000   14.0820000  
H 15.3860000   14.3490000   13.4130000  
H 15.7980000   16.7410000   16.9980000  
H 20.0890000   17.2320000   19.3300000  
H 21.8780000   15.1360000   17.9470000  
C 17.7340000   17.1850000   18.9300000  
C 16.7240000   16.6540000   19.7810000  
C 16.1440000   17.5180000   20.6930000  
C 16.3940000   18.8530000   20.8430000  
C 17.3150000   19.3800000   19.8760000  
C 17.9580000   18.5340000   18.9550000  
C 16.0140000   15.4060000   19.9350000  
C 15.1020000   15.4940000   20.9930000  
N 15.1690000   16.8620000   21.3800000  
O 14.0660000   13.3540000   20.6920000  
C 14.0550000   14.5050000   21.3860000  
O 13.1320000   14.6280000   22.1470000  
O 17.5420000   20.7360000   19.8100000  
O 18.8230000   19.1530000   18.1080000  
H 16.2870000   14.5550000   19.3730000  
H 14.8330000   13.3390000   20.1480000  
H 14.4570000   17.3960000   21.8940000  
H 16.6890000   21.1300000   20.2070000  
H 18.6920000   20.1150000   18.3910000  
C 15.7990000   19.5980000   21.9860000  
C 16.0170000   19.1810000   23.3460000  
C 15.3080000   19.8070000   24.3330000  
C 14.3290000   20.8050000   24.1450000  
C 14.1780000   21.2770000   22.8240000  
C 14.9090000   20.6720000   21.7740000  
C 16.7300000   18.0280000   23.9600000  
C 16.3520000   18.1390000   25.3410000  
N 15.6140000   19.3100000   25.5880000  
O 17.4520000   16.0510000   26.0710000  
C 16.5400000   17.0750000   26.3760000  
O 15.8870000   17.0410000   27.4150000  
O 13.3160000   22.3300000   22.6420000  
O 14.7650000   21.2610000   20.5120000  
H 17.2180000   17.1710000   23.4910000  
H 17.5330000   16.2910000   25.1440000  
H 15.1440000   19.6300000   26.4310000  
H 13.0690000   22.7180000   23.4730000  
H 14.1350000   21.9470000   20.6820000  
C 13.4340000   21.3870000   25.3040000  
C 13.6760000   22.7060000   25.7650000  
C 12.8620000   23.2300000   26.7590000  
C 11.8690000   22.5250000   27.3960000  
C 11.6630000   21.1770000   27.0200000  
C 12.4460000   20.6350000   26.0070000  
C 14.6020000   23.8310000   25.4770000  
C 14.1870000   24.9490000   26.1960000  
N 13.1360000   24.5700000   26.9860000  
O 16.0380000   26.3460000   25.5470000  
C 14.8840000   26.2740000   26.2020000  
O 14.4730000   27.1970000   26.8600000  
O 10.5860000   20.5390000   27.5820000  
O 12.2290000   19.3700000   25.6820000  
H 15.4780000   23.6740000   24.9030000  
H 16.1450000   25.4860000   25.1140000  
H 12.6300000   25.2110000   27.6120000  
H 10.0150000   21.1410000   28.0770000  
H 11.4390000   19.1120000   26.1080000  
H 11.2090000   23.0070000   28.1340000  
