78
001 
C 10.7490000   24.0370000   21.8870000  
C  9.3850000   23.5930000   22.1790000  
C  9.1980000   22.2270000   22.3570000  
C 10.2440000   21.3600000   22.2950000  
C 11.5760000   21.7150000   22.0180000  
C 11.8050000   23.0700000   21.7710000  
C  8.0350000   21.4440000   22.7150000  
C  8.4360000   20.1350000   22.8810000  
N  9.8380000   20.0350000   22.6750000  
O  6.2480000   19.3090000   23.4060000  
C  7.5180000   19.0150000   23.1570000  
O  7.9600000   17.8720000   23.2750000  
O 13.0440000   23.5370000   21.4960000  
O 11.0260000   25.4090000   21.8650000  
H  8.5410000   24.2080000   22.3520000  
H  7.0550000   21.8450000   22.7040000  
H  6.0390000   20.2090000   23.1500000  
H 10.4130000   19.1960000   22.7870000  
H 13.6670000   22.8130000   21.4250000  
H 11.9760000   25.3960000   21.8600000  
C 12.6580000   20.7390000   22.0210000  
C 13.0200000   20.0340000   20.9050000  
C 14.0740000   19.1790000   20.9290000  
C 14.9010000   18.8620000   21.9780000  
C 14.6130000   19.6060000   23.1980000  
C 13.5140000   20.5280000   23.1860000  
C 12.3680000   19.8910000   19.5870000  
C 13.0550000   18.9050000   18.8730000  
N 14.1780000   18.5740000   19.6730000  
O 11.6900000   18.7760000   16.9940000  
C 12.7950000   18.3700000   17.5390000  
O 13.5070000   17.5310000   17.0220000  
O 15.4350000   19.5350000   24.2480000  
O 13.3420000   21.3070000   24.3030000  
H 11.3990000   20.4640000   19.3390000  
H 11.3130000   19.3870000   17.5710000  
H 14.9440000   17.9210000   19.4580000  
H 15.8860000   18.6740000   24.2120000  
H 13.9340000   20.9210000   24.9870000  
C 16.0660000   17.9280000   21.8830000  
C 17.0930000   18.2300000   20.9820000  
C 18.2690000   17.4510000   20.9380000  
C 18.5930000   16.4620000   21.8580000  
C 17.5820000   16.2010000   22.8870000  
C 16.2710000   16.8580000   22.8270000  
C 17.3320000   19.2700000   19.9980000  
C 18.6220000   19.1090000   19.4100000  
N 19.2250000   18.0360000   20.0600000  
O 18.5220000   20.9490000   17.8810000  
C 19.2700000   19.9220000   18.3600000  
O 20.3960000   19.7130000   17.9520000  
O 17.8270000   15.2000000   23.7790000  
O 15.3460000   16.4100000   23.6850000  
H 16.5490000   19.8550000   19.6050000  
H 17.6060000   20.8510000   18.2890000  
H 20.1580000   17.6390000   19.8400000  
H 18.6600000   14.7710000   23.6170000  
H 15.7250000   15.6570000   24.1690000  
C 19.8880000   15.7620000   21.7970000  
C 20.8050000   16.0120000   22.7850000  
C 22.0360000   15.4470000   22.8820000  
C 22.5950000   14.6680000   21.8190000  
C 21.6010000   14.2790000   20.8690000  
C 20.3320000   14.9360000   20.7280000  
C 20.7300000   17.0880000   23.7360000  
C 21.9830000   17.0650000   24.4320000  
N 22.7620000   16.0260000   23.8920000  
O 21.4790000   18.7840000   26.0420000  
C 22.4220000   17.8610000   25.6040000  
O 23.5580000   17.7660000   26.0410000  
O 21.9580000   13.4320000   19.9050000  
O 19.4540000   14.6790000   19.6590000  
H 19.8510000   17.7040000   24.0240000  
H 20.7860000   18.8090000   25.3290000  
H 23.7740000   15.8840000   24.0640000  
H 22.8970000   13.6890000   19.6940000  
H 19.8490000   13.9940000   19.1130000  
H 23.6210000   14.3490000   21.7150000  
