78
001 
C 11.7120000   22.9610000   17.5320000  
C 10.3360000   22.6360000   17.5690000  
C  9.9120000   21.5810000   18.3840000  
C 10.7320000   21.0970000   19.3370000  
C 12.0780000   21.4300000   19.4480000  
C 12.5700000   22.3380000   18.4490000  
C  8.7120000   20.7510000   18.3540000  
C  8.8600000   19.7260000   19.3230000  
N 10.1430000   20.0540000   19.9390000  
O  6.8380000   18.5160000   18.9030000  
C  7.9900000   18.5670000   19.6190000  
O  8.2190000   17.6200000   20.3680000  
O 13.9110000   22.6200000   18.2870000  
O 12.1490000   23.7600000   16.5560000  
H  9.6960000   23.0060000   16.7950000  
H  7.8220000   20.9070000   17.7900000  
H  6.8670000   19.2860000   18.3180000  
H 10.7270000   19.4410000   20.5320000  
H 14.3980000   21.9200000   18.7510000  
H 13.1200000   23.7270000   16.5130000  
C 12.9930000   20.6790000   20.3250000  
C 13.2200000   19.3410000   20.0400000  
C 14.0670000   18.5840000   20.7860000  
C 14.8790000   19.0660000   21.8030000  
C 14.7040000   20.4140000   22.1580000  
C 13.8500000   21.2170000   21.3080000  
C 12.6850000   18.5130000   19.0510000  
C 13.3130000   17.2570000   19.2410000  
N 14.1960000   17.3580000   20.3440000  
O 12.1560000   16.0810000   17.5580000  
C 13.1940000   16.0500000   18.4790000  
O 13.8680000   15.0480000   18.6430000  
O 15.4140000   20.9440000   23.1720000  
O 13.7390000   22.5700000   21.5620000  
H 12.0460000   18.7880000   18.2260000  
H 11.8750000   16.9710000   17.5190000  
H 14.8960000   16.7280000   20.5420000  
H 15.8490000   20.1670000   23.5110000  
H 14.3090000   22.7540000   22.3200000  
C 15.9690000   18.3130000   22.4290000  
C 17.1960000   18.2110000   21.8010000  
C 18.2200000   17.6210000   22.4910000  
C 18.1960000   16.9920000   23.7490000  
C 16.9180000   17.0690000   24.3280000  
C 15.7930000   17.7320000   23.7230000  
C 17.6980000   18.6810000   20.5250000  
C 19.0700000   18.4490000   20.5980000  
N 19.4080000   17.9300000   21.8950000  
O 19.4340000   19.1380000   18.3940000  
C 19.9510000   18.5370000   19.5030000  
O 21.1290000   18.2020000   19.6570000  
O 16.8490000   16.7520000   25.6530000  
O 14.6650000   17.8090000   24.4490000  
H 17.1540000   18.9900000   19.5930000  
H 18.4970000   19.0670000   18.4380000  
H 20.3300000   17.9380000   22.3310000  
H 17.7430000   16.8040000   25.9150000  
H 14.9000000   17.7280000   25.3990000  
C 19.4030000   16.4770000   24.4740000  
C 20.0870000   17.3350000   25.4080000  
C 21.1760000   16.9220000   26.0220000  
C 21.7760000   15.6980000   25.7600000  
C 21.2130000   14.8960000   24.7850000  
C 19.9770000   15.2120000   24.2210000  
C 19.7720000   18.6700000   25.8720000  
C 20.6560000   19.0040000   26.8400000  
N 21.5490000   17.9460000   26.9140000  
O 19.8260000   21.2020000   27.2870000  
C 20.8110000   20.2710000   27.5320000  
O 21.6750000   20.4720000   28.3720000  
O 21.8630000   13.7640000   24.4920000  
O 19.4160000   14.3680000   23.3770000  
H 19.0250000   19.3140000   25.5980000  
H 19.2590000   20.7730000   26.7110000  
H 22.3680000   17.8430000   27.4740000  
H 22.4570000   13.3990000   25.1830000  
H 19.6690000   13.4900000   23.7340000  
H 22.6990000   15.5200000   26.2440000  
