78
001 
C 10.3240000   20.0970000   27.2620000  
C 11.0770000   20.7130000   28.3180000  
C 12.4590000   20.9050000   28.0480000  
C 13.0190000   20.4370000   26.8800000  
C 12.2600000   20.0080000   25.7550000  
C 10.8860000   19.9250000   25.9540000  
C 13.5270000   21.4580000   28.8770000  
C 14.6460000   21.3290000   28.0350000  
N 14.3710000   20.6990000   26.8620000  
O 15.8760000   22.6400000   29.5600000  
C 15.9710000   21.8770000   28.4340000  
O 17.0240000   21.7640000   27.8060000  
O 10.1030000   19.4840000   24.9340000  
O  9.0350000   19.7740000   27.4570000  
H 10.5410000   21.0710000   29.2430000  
H 13.4400000   21.9260000   29.8370000  
H 15.0080000   22.2900000   29.9420000  
H 15.0310000   20.4740000   26.1250000  
H 10.6830000   19.6450000   24.1610000  
H  8.7210000   19.4320000   26.6040000  
C 12.9940000   19.7420000   24.4360000  
C 14.0430000   18.7920000   24.4510000  
C 14.9060000   18.6270000   23.4090000  
C 14.8140000   19.3510000   22.2190000  
C 13.6750000   20.1340000   22.1470000  
C 12.8070000   20.4050000   23.2320000  
C 14.6120000   18.0090000   25.5770000  
C 15.8260000   17.4330000   25.0810000  
N 16.0110000   17.9390000   23.7540000  
O 16.0420000   16.1550000   27.1240000  
C 16.6610000   16.5260000   25.8990000  
O 17.8360000   16.1600000   25.6780000  
O 13.3770000   20.7410000   20.9080000  
O 11.6720000   21.1900000   23.1150000  
H 14.2760000   18.0690000   26.6190000  
H 15.2480000   16.6500000   27.2000000  
H 16.7290000   17.7170000   23.1180000  
H 13.9220000   20.4160000   20.1930000  
H 11.7780000   21.7820000   22.3280000  
C 15.7690000   19.0960000   21.0700000  
C 15.6100000   18.0340000   20.1450000  
C 16.4710000   17.8550000   19.0930000  
C 17.6790000   18.5680000   18.8920000  
C 17.8710000   19.6430000   19.7930000  
C 16.8910000   20.0060000   20.8080000  
C 14.7000000   16.9370000   19.9640000  
C 15.0510000   16.1540000   18.8310000  
N 16.1950000   16.7070000   18.3350000  
O 13.1680000   14.8050000   18.8410000  
C 14.3130000   15.0500000   18.2310000  
O 14.7380000   14.4250000   17.2510000  
O 18.9230000   20.4890000   19.6650000  
O 17.0130000   21.2090000   21.5110000  
H 13.8450000   16.7310000   20.6190000  
H 13.2680000   15.4080000   19.6130000  
H 16.7640000   16.3830000   17.5570000  
H 19.6540000   19.9810000   19.2360000  
H 17.8370000   21.6720000   21.1990000  
C 18.8160000   18.1860000   17.9360000  
C 18.6320000   18.1270000   16.5510000  
C 19.5940000   17.6790000   15.7160000  
C 20.9420000   17.3830000   16.1350000  
C 21.1010000   17.3720000   17.5730000  
C 20.0870000   17.7940000   18.4300000  
C 17.4670000   18.3870000   15.6980000  
C 17.8210000   17.9220000   14.4470000  
N 19.1680000   17.6250000   14.4100000  
O 15.7050000   18.2540000   13.5980000  
C 16.9570000   17.9040000   13.3120000  
O 17.2790000   17.5530000   12.1830000  
O 22.2890000   17.1280000   18.1120000  
O 20.3200000   17.6790000   19.7600000  
H 16.4690000   18.6150000   15.9500000  
H 15.8160000   18.5010000   14.5620000  
H 19.7140000   17.2100000   13.6440000  
H 22.6240000   16.3280000   17.7510000  
H 21.2460000   17.4630000   19.8150000  
H 21.7200000   17.1840000   15.4590000  
