78
001 
C 15.5660000   13.6630000   16.5000000  
C 16.2380000   14.0870000   15.3000000  
C 16.9700000   15.2670000   15.4310000  
C 17.0120000   15.9840000   16.5310000  
C 16.4200000   15.6500000   17.7760000  
C 15.6290000   14.4420000   17.7290000  
C 17.6410000   16.0160000   14.3880000  
C 18.0450000   17.1810000   14.9750000  
N 17.6820000   17.1880000   16.3680000  
O 19.0820000   17.9940000   12.9810000  
C 18.8120000   18.2610000   14.2670000  
O 19.1120000   19.2910000   14.8250000  
O 14.8470000   14.0630000   18.7880000  
O 14.8860000   12.4870000   16.3270000  
H 16.2640000   13.5110000   14.3610000  
H 17.7420000   15.7440000   13.3190000  
H 18.8470000   17.0920000   12.8640000  
H 18.2120000   17.7280000   17.0590000  
H 15.0940000   14.6110000   19.5450000  
H 14.3870000   12.2610000   17.0890000  
C 16.4570000   16.5640000   18.9560000  
C 15.8230000   17.7990000   18.9380000  
C 15.7430000   18.5460000   20.0460000  
C 16.2070000   18.1460000   21.3440000  
C 16.8900000   16.8830000   21.3200000  
C 17.0210000   16.1330000   20.1210000  
C 15.1830000   18.5270000   17.8480000  
C 14.9500000   19.7870000   18.3740000  
N 15.1280000   19.7930000   19.7340000  
O 14.1980000   20.8770000   16.3220000  
C 14.5600000   21.0430000   17.6020000  
O 14.2950000   22.0480000   18.1990000  
O 17.3550000   16.3190000   22.4860000  
O 17.7330000   14.9730000   20.1340000  
H 15.1580000   18.1770000   16.8140000  
H 14.3600000   19.9300000   16.2450000  
H 14.9760000   20.6220000   20.3760000  
H 17.0810000   16.9400000   23.2430000  
H 17.7650000   14.6300000   21.0790000  
C 16.0100000   19.0270000   22.5500000  
C 14.7290000   19.6000000   22.8620000  
C 14.5480000   20.1820000   24.0380000  
C 15.5950000   20.5660000   24.9420000  
C 16.8470000   20.0960000   24.6030000  
C 17.0630000   19.3400000   23.4090000  
C 13.4390000   19.4190000   22.2670000  
C 12.5310000   19.9560000   23.1540000  
N 13.2240000   20.5100000   24.2210000  
O 10.6370000   19.4620000   21.8600000  
C 11.0830000   19.9400000   23.0700000  
O 10.3580000   20.3740000   23.9090000  
O 17.9370000   20.4230000   25.2990000  
O 18.3230000   18.9550000   23.0510000  
H 13.2620000   18.9460000   21.3050000  
H 11.5120000   19.0700000   21.5540000  
H 12.8500000   21.0980000   24.9590000  
H 17.6880000   21.0060000   26.0820000  
H 18.9060000   19.2400000   23.7850000  
C 15.2690000   21.2900000   26.2290000  
C 15.6900000   20.7850000   27.4300000  
C 15.3740000   21.4730000   28.5740000  
C 14.9110000   22.7730000   28.5920000  
C 14.7320000   23.3820000   27.3810000  
C 14.8420000   22.6890000   26.1610000  
C 16.0640000   19.4030000   27.7770000  
C 15.8410000   19.2990000   29.1530000  
N 15.4920000   20.5850000   29.6480000  
O 16.0970000   16.9240000   29.2710000  
C 16.0520000   18.0630000   29.9750000  
O 16.1270000   18.0660000   31.2220000  
O 14.4300000   24.6700000   27.3940000  
O 14.5330000   23.3360000   25.0420000  
H 16.3430000   18.6540000   27.1180000  
H 16.1020000   17.1710000   28.3340000  
H 15.3910000   20.8340000   30.6100000  
H 14.0980000   25.0100000   28.2700000  
H 13.9260000   24.0710000   25.2940000  
H 14.5670000   23.3310000   29.4940000  
