78
001 
C 13.3850000   18.7550000   28.7190000  
C 14.2680000   19.2280000   29.6730000  
C 15.5100000   19.6790000   29.2030000  
C 15.7400000   19.6300000   27.8610000  
C 14.8760000   19.2380000   26.8510000  
C 13.6130000   18.7490000   27.3170000  
C 16.6420000   20.1950000   29.9220000  
C 17.5710000   20.4560000   28.8560000  
N 17.0440000   19.9880000   27.6160000  
O 18.9760000   21.6230000   30.3220000  
C 18.8860000   21.1440000   29.0560000  
O 19.7200000   21.3340000   28.1720000  
O 12.6370000   18.3180000   26.4510000  
O 12.1410000   18.3020000   29.1250000  
H 13.9210000   19.2380000   30.7380000  
H 16.7010000   20.5250000   30.9310000  
H 18.1930000   21.2100000   30.8040000  
H 17.5560000   20.1280000   26.7840000  
H 13.1510000   18.0910000   25.6560000  
H 11.8460000   18.0270000   28.2850000  
C 15.3580000   19.2600000   25.3920000  
C 15.4130000   18.0120000   24.7320000  
C 15.6710000   17.9970000   23.3490000  
C 15.7580000   19.1240000   22.4510000  
C 15.7450000   20.3950000   23.1900000  
C 15.5520000   20.4320000   24.6110000  
C 15.3110000   16.6540000   25.1770000  
C 15.3630000   15.7950000   24.0840000  
N 15.6790000   16.6540000   22.9420000  
O 15.0450000   13.6910000   25.1680000  
C 15.2400000   14.3050000   24.0280000  
O 15.2790000   13.6930000   22.9910000  
O 15.6870000   21.5800000   22.5090000  
O 15.4710000   21.6730000   25.1890000  
H 14.9980000   16.3930000   26.1580000  
H 14.9550000   14.3680000   25.8540000  
H 15.9240000   16.4630000   21.9930000  
H 15.9150000   21.3020000   21.6410000  
H 15.4910000   22.1980000   24.4160000  
C 15.8700000   19.0300000   20.9450000  
C 15.0180000   18.2120000   20.2510000  
C 15.2660000   18.0120000   18.8940000  
C 16.3280000   18.5530000   18.1620000  
C 17.1790000   19.4050000   18.8690000  
C 17.0020000   19.5870000   20.2420000  
C 13.9610000   17.2920000   20.6100000  
C 13.4560000   16.7570000   19.4090000  
N 14.3820000   17.0770000   18.3950000  
O 11.8140000   15.4040000   20.4330000  
C 12.3170000   15.7930000   19.2590000  
O 11.9640000   15.3060000   18.2070000  
O 18.1700000   20.0790000   18.2010000  
O 17.8860000   20.4140000   20.9270000  
H 13.5250000   17.1220000   21.5790000  
H 12.3470000   15.8820000   21.0580000  
H 14.5110000   16.6500000   17.4660000  
H 18.0280000   19.9050000   17.2440000  
H 18.7560000   20.4270000   20.4340000  
C 16.4120000   18.4200000   16.7450000  
C 16.1470000   19.4580000   15.7950000  
C 16.1120000   19.1650000   14.4430000  
C 16.4930000   17.9690000   13.9040000  
C 16.8890000   16.9950000   14.8630000  
C 16.8570000   17.1270000   16.2500000  
C 15.9670000   20.8590000   15.8660000  
C 15.7980000   21.3580000   14.5900000  
N 15.7920000   20.3130000   13.6830000  
O 16.1490000   23.6480000   15.2140000  
C 15.7630000   22.8420000   14.2120000  
O 15.4280000   23.2540000   13.0970000  
O 17.4300000   15.8340000   14.3610000  
O 17.1690000   16.0430000   17.0260000  
H 15.9560000   21.4810000   16.7860000  
H 16.6150000   23.0110000   15.7760000  
H 15.5870000   20.4350000   12.7120000  
H 17.3480000   15.9160000   13.3690000  
H 17.6740000   15.4030000   16.5180000  
H 16.6450000   17.7740000   12.8240000  
