78
001 
C 18.5840000   12.4360000   18.5830000  
C 19.9120000   12.8450000   18.1670000  
C 20.2330000   14.2070000   18.3970000  
C 19.3590000   14.9950000   19.0400000  
C 18.1100000   14.6050000   19.5150000  
C 17.6680000   13.3230000   19.1530000  
C 21.4580000   14.9320000   18.1250000  
C 21.1940000   16.1930000   18.6560000  
N 19.9340000   16.1840000   19.2680000  
O 23.1920000   17.3190000   18.0600000  
C 21.9730000   17.3750000   18.6530000  
O 21.5930000   18.4220000   19.1100000  
O 16.5340000   12.7940000   19.7140000  
O 18.1750000   11.1420000   18.3420000  
H 20.6320000   12.2510000   17.6230000  
H 22.3810000   14.5890000   17.6540000  
H 23.1690000   16.4090000   17.7020000  
H 19.5170000   16.9310000   19.7890000  
H 16.1890000   13.5470000   20.1600000  
H 17.3020000   11.1260000   18.7510000  
C 17.2170000   15.5880000   20.2280000  
C 16.9690000   16.8680000   19.6810000  
C 16.3550000   17.8630000   20.3730000  
C 15.9050000   17.7800000   21.6750000  
C 16.0850000   16.5490000   22.2970000  
C 16.7220000   15.4470000   21.6000000  
C 17.2230000   17.3730000   18.3330000  
C 16.8220000   18.7090000   18.3960000  
N 16.2300000   19.0380000   19.6210000  
O 17.7750000   19.2530000   16.2180000  
C 17.0020000   19.7170000   17.2550000  
O 16.5350000   20.8190000   17.1760000  
O 15.5080000   16.3890000   23.5750000  
O 16.8190000   14.2400000   22.3110000  
H 17.7950000   16.8930000   17.4810000  
H 18.1930000   18.4740000   16.5930000  
H 15.8970000   19.9870000   19.9040000  
H 15.2740000   17.2850000   24.0190000  
H 16.3090000   14.2760000   23.1270000  
C 15.2060000   18.8700000   22.3900000  
C 13.8830000   19.2580000   22.1030000  
C 13.3700000   20.3740000   22.6940000  
C 14.0450000   21.1430000   23.6290000  
C 15.2100000   20.5900000   24.2180000  
C 15.8130000   19.5370000   23.5280000  
C 12.9650000   18.8080000   21.1200000  
C 11.8630000   19.6380000   21.1590000  
N 12.1200000   20.6310000   22.1180000  
O 10.7290000   18.5170000   19.3580000  
C 10.7930000   19.6230000   20.1350000  
O 10.0430000   20.6020000   19.9630000  
O 15.8320000   21.0270000   25.4080000  
O 16.9450000   18.9680000   24.0640000  
H 13.0760000   18.0130000   20.3910000  
H 11.5100000   18.0810000   19.5850000  
H 11.4900000   21.3170000   22.3900000  
H 15.1460000   21.5720000   25.8690000  
H 17.3210000   19.5750000   24.7420000  
C 13.4650000   22.4110000   24.1290000  
C 13.0780000   22.3400000   25.4940000  
C 12.5160000   23.4590000   26.0370000  
C 12.1960000   24.6350000   25.3780000  
C 12.6790000   24.7350000   24.0160000  
C 13.3430000   23.6540000   23.4450000  
C 12.9730000   21.2820000   26.4720000  
C 12.4500000   21.7890000   27.6170000  
N 12.1210000   23.1200000   27.3310000  
O 12.3850000   19.7430000   28.9230000  
C 12.1260000   21.0700000   28.9540000  
O 11.8110000   21.6300000   29.9920000  
O 12.4990000   25.8260000   23.3720000  
O 13.7430000   23.6860000   22.1280000  
H 13.3650000   20.2430000   26.3110000  
H 12.5540000   19.5860000   27.9950000  
H 11.5790000   23.6580000   27.9650000  
H 11.8650000   26.3000000   23.9420000  
H 13.4270000   24.5700000   21.7850000  
H 11.7900000   25.5090000   25.9250000  
