78
001 
C 16.0160000   12.9030000   17.5480000  
C 17.1350000   12.8640000   16.6840000  
C 18.2030000   13.7550000   16.9380000  
C 18.1110000   14.6780000   17.9450000  
C 17.0540000   14.8100000   18.8270000  
C 15.9680000   13.8650000   18.6490000  
C 19.5100000   13.8780000   16.3140000  
C 20.2190000   14.8250000   17.0960000  
N 19.3330000   15.2990000   18.1080000  
O 22.0970000   14.7150000   15.8010000  
C 21.6270000   15.1520000   16.9520000  
O 22.3080000   15.7370000   17.7670000  
O 14.8720000   13.9970000   19.4420000  
O 15.0260000   11.9280000   17.5080000  
H 17.2050000   12.0250000   15.9770000  
H 19.8540000   13.3000000   15.3620000  
H 21.3470000   14.3810000   15.2820000  
H 19.4890000   16.1250000   18.6710000  
H 15.1720000   14.6790000   20.0650000  
H 14.3280000   12.1430000   18.2130000  
C 16.9900000   15.9000000   19.9120000  
C 16.6800000   17.2370000   19.5590000  
C 16.5130000   18.1890000   20.4210000  
C 16.2460000   17.9320000   21.7650000  
C 16.3570000   16.5710000   22.2250000  
C 16.6990000   15.5470000   21.2690000  
C 16.7440000   17.8460000   18.2430000  
C 16.5720000   19.1970000   18.4520000  
N 16.3910000   19.4500000   19.8390000  
O 16.7350000   19.8510000   16.1250000  
C 16.4780000   20.2650000   17.4140000  
O 16.3850000   21.4470000   17.6690000  
O 15.9830000   16.2440000   23.5240000  
O 16.7560000   14.2400000   21.7200000  
H 16.6380000   17.2950000   17.2690000  
H 16.5870000   18.8530000   16.1010000  
H 16.4740000   20.3610000   20.3730000  
H 16.1630000   16.9820000   24.1330000  
H 16.4920000   14.2180000   22.6140000  
C 15.9370000   19.0760000   22.6790000  
C 14.7790000   19.8700000   22.5500000  
C 14.5500000   20.8980000   23.3730000  
C 15.3360000   21.2320000   24.4970000  
C 16.5150000   20.4350000   24.6900000  
C 16.7730000   19.3600000   23.7790000  
C 13.6680000   19.7050000   21.6530000  
C 12.7740000   20.7910000   21.9910000  
N 13.3720000   21.5120000   23.0410000  
O 11.1320000   20.1580000   20.3760000  
C 11.5070000   21.0120000   21.3500000  
O 10.6970000   21.8610000   21.6490000  
O 17.4050000   20.6890000   25.7250000  
O 17.8690000   18.5020000   24.0620000  
H 13.5020000   18.8820000   20.9750000  
H 12.0350000   19.7610000   20.1500000  
H 13.0860000   22.4240000   23.3620000  
H 16.9670000   21.3550000   26.3230000  
H 18.0670000   18.5910000   25.0200000  
C 14.8950000   22.3410000   25.4510000  
C 13.6570000   22.2180000   26.0450000  
C 13.2840000   23.0260000   27.1050000  
C 14.0650000   24.1670000   27.4800000  
C 15.2830000   24.3880000   26.8070000  
C 15.7550000   23.3810000   25.8790000  
C 12.6070000   21.2370000   25.8580000  
C 11.6010000   21.5970000   26.7510000  
N 11.9890000   22.7750000   27.4950000  
O 10.1830000   19.9370000   25.9510000  
C 10.3260000   20.8980000   26.8330000  
O  9.3420000   21.1910000   27.5010000  
O 16.0390000   25.4400000   27.0960000  
O 16.9830000   23.6260000   25.3690000  
H 12.6570000   20.4480000   25.1360000  
H 10.9670000   19.8430000   25.3730000  
H 11.6230000   23.0250000   28.3980000  
H 15.4100000   25.9600000   27.6370000  
H 17.2890000   24.4610000   25.8070000  
H 13.7320000   24.9490000   28.1810000  
