78
001 
C  9.6930000   17.6210000   17.9900000  
C  9.2250000   18.8240000   17.3090000  
C 10.0410000   19.9380000   17.1930000  
C 11.2410000   19.9680000   17.8500000  
C 11.7360000   18.9030000   18.6820000  
C 10.9350000   17.7410000   18.7360000  
C  9.8350000   21.3080000   16.6710000  
C 10.8310000   22.1020000   17.1700000  
N 11.7390000   21.2860000   17.8270000  
O 10.1960000   24.1270000   16.0160000  
C 11.1420000   23.4550000   16.7900000  
O 12.1780000   24.0210000   17.0550000  
O 11.4300000   16.6180000   19.3810000  
O  8.7670000   16.6120000   18.2020000  
H  8.1930000   18.7880000   16.8890000  
H  8.9530000   21.6020000   15.9700000  
H  9.4990000   23.5070000   15.8890000  
H 12.5610000   21.6600000   18.2900000  
H 12.3130000   16.9330000   19.6110000  
H  9.3220000   15.8990000   18.6350000  
C 13.0260000   18.9440000   19.5160000  
C 13.1860000   19.8990000   20.5770000  
C 14.3590000   19.9160000   21.2260000  
C 15.4660000   19.1010000   21.0090000  
C 15.3490000   18.2040000   19.8910000  
C 14.1320000   18.1830000   19.1870000  
C 12.2800000   20.8000000   21.2700000  
C 12.9340000   21.3330000   22.3630000  
N 14.2820000   20.8120000   22.3160000  
O 11.1830000   22.7990000   23.0090000  
C 12.3940000   22.3450000   23.3060000  
O 13.0200000   22.8420000   24.2390000  
O 16.4760000   17.5730000   19.4790000  
O 14.1070000   17.4160000   18.0850000  
H 11.2890000   20.9810000   20.9840000  
H 10.9670000   22.2140000   22.3000000  
H 14.9660000   20.9230000   23.0470000  
H 17.1130000   18.0540000   20.0660000  
H 15.0170000   17.3230000   17.7300000  
C 16.5510000   19.0160000   21.9750000  
C 16.3210000   18.2710000   23.1900000  
C 17.3600000   18.1330000   24.1060000  
C 18.6870000   18.5580000   23.8270000  
C 18.9020000   19.3380000   22.6600000  
C 17.8620000   19.5140000   21.7190000  
C 15.2800000   17.4480000   23.7160000  
C 15.7740000   16.9670000   24.9530000  
N 16.9530000   17.5060000   25.2520000  
O 13.9130000   15.4360000   25.3460000  
C 15.0480000   16.0510000   25.8670000  
O 15.4320000   15.9050000   27.0150000  
O 20.1130000   19.8060000   22.3730000  
O 18.1300000   20.1830000   20.5900000  
H 14.3060000   17.2140000   23.2410000  
H 13.7150000   15.9890000   24.5630000  
H 17.4800000   17.4350000   26.1090000  
H 20.7900000   19.3880000   22.9860000  
H 19.0110000   20.5640000   20.7650000  
C 19.7800000   18.0660000   24.6890000  
C 20.7860000   17.2390000   24.1570000  
C 21.8110000   16.6780000   24.9190000  
C 21.9920000   17.0270000   26.2490000  
C 21.0670000   17.8830000   26.8670000  
C 19.9250000   18.3590000   26.1210000  
C 20.8910000   16.6940000   22.8500000  
C 22.0050000   15.8260000   22.8700000  
N 22.5460000   15.7870000   24.1960000  
O 22.1130000   15.5220000   20.4530000  
C 22.5810000   15.0600000   21.6870000  
O 23.4100000   14.1340000   21.7230000  
O 21.0700000   17.9470000   28.1900000  
O 18.9680000   19.0820000   26.7180000  
H 20.2110000   16.7520000   22.0020000  
H 21.5870000   16.2750000   20.6720000  
H 23.2880000   15.1840000   24.5220000  
H 21.4790000   17.1720000   28.6410000  
H 19.1340000   19.1780000   27.6710000  
H 22.8270000   16.6670000   26.8750000  
