78
001 
C 12.8740000   15.9960000   15.4560000  
C 13.1230000   16.7390000   14.3090000  
C 13.8800000   17.9540000   14.4780000  
C 14.3840000   18.2920000   15.6670000  
C 14.2280000   17.6250000   16.9090000  
C 13.3630000   16.4300000   16.7540000  
C 14.4570000   18.8730000   13.4640000  
C 15.2250000   19.8020000   14.1750000  
N 15.0490000   19.5200000   15.5510000  
O 16.1910000   21.0640000   12.3770000  
C 15.9390000   21.0230000   13.6670000  
O 16.3260000   21.8770000   14.3870000  
O 13.0890000   15.6760000   17.8560000  
O 11.9930000   14.9470000   15.3160000  
H 12.6940000   16.4460000   13.3200000  
H 14.3550000   18.7550000   12.3960000  
H 15.8060000   20.2840000   11.9490000  
H 15.4570000   20.0760000   16.2900000  
H 13.2490000   16.2230000   18.6890000  
H 11.6800000   14.7150000   16.1830000  
C 14.6840000   18.0910000   18.2600000  
C 13.7470000   18.4640000   19.1880000  
C 14.1550000   18.8930000   20.4090000  
C 15.4830000   18.8100000   20.9410000  
C 16.5140000   18.4590000   19.9620000  
C 16.0560000   18.1290000   18.6630000  
C 12.3210000   18.6120000   19.1550000  
C 11.9580000   19.2220000   20.3220000  
N 13.0860000   19.3530000   21.1700000  
O  9.7240000   19.7830000   19.6960000  
C 10.6310000   19.7990000   20.6760000  
O 10.4330000   20.3570000   21.7640000  
O 17.8030000   18.5900000   20.3180000  
O 17.0210000   17.9810000   17.7090000  
H 11.6520000   18.3820000   18.3070000  
H 10.1610000   19.5030000   18.8160000  
H 13.0590000   19.9120000   21.9940000  
H 18.3690000   18.2400000   19.7030000  
H 16.7180000   17.6430000   16.9040000  
C 15.7710000   19.1030000   22.4490000  
C 16.1940000   18.1190000   23.3280000  
C 16.4540000   18.3330000   24.6120000  
C 16.3340000   19.5890000   25.2590000  
C 15.9020000   20.6590000   24.3870000  
C 15.6610000   20.4730000   22.9830000  
C 16.4860000   16.7090000   23.0600000  
C 16.9180000   16.1260000   24.2340000  
N 16.8490000   17.1360000   25.2070000  
O 17.6010000   14.0230000   23.2060000  
C 17.3900000   14.7270000   24.3530000  
O 17.5850000   14.1770000   25.4250000  
O 15.7740000   21.8980000   24.9130000  
O 15.2420000   21.5430000   22.2290000  
H 16.2920000   16.1740000   22.0730000  
H 17.1890000   14.4230000   22.4770000  
H 16.9050000   16.8670000   26.2230000  
H 16.0980000   21.8490000   25.8310000  
H 15.2200000   22.3160000   22.8460000  
C 16.4860000   19.7780000   26.7460000  
C 17.7980000   19.7600000   27.3100000  
C 17.9340000   19.8150000   28.6820000  
C 16.8540000   20.1410000   29.5430000  
C 15.5190000   20.2240000   29.0320000  
C 15.4030000   19.9770000   27.6260000  
C 19.1580000   19.5970000   26.7610000  
C 20.0560000   19.6580000   27.8230000  
N 19.2810000   19.7240000   29.0200000  
O 22.1020000   19.3840000   26.6750000  
C 21.4460000   19.3570000   27.7890000  
O 22.0220000   18.9990000   28.7610000  
O 14.5080000   20.5210000   29.8630000  
O 14.1520000   19.8540000   27.0910000  
H 19.5020000   19.2970000   25.7580000  
H 21.3810000   19.4680000   26.0110000  
H 19.6200000   19.8640000   29.9040000  
H 13.7330000   20.6490000   29.3530000  
H 14.2280000   19.4110000   26.2480000  
H 17.0560000   20.2680000   30.5250000  
