78
001 
C 10.8350000   18.3490000   15.9100000  
C 10.9540000   19.5230000   15.1560000  
C 11.8560000   20.4730000   15.5810000  
C 12.4740000   20.3290000   16.7700000  
C 12.6050000   19.1140000   17.4890000  
C 11.7240000   18.1080000   17.0570000  
C 12.1720000   21.7960000   15.1050000  
C 13.0710000   22.3920000   16.0230000  
N 13.2830000   21.4340000   17.0780000  
O 13.0940000   24.5810000   15.0700000  
C 13.7030000   23.7580000   15.9870000  
O 14.5900000   24.1710000   16.6930000  
O 11.5130000   17.0140000   17.8070000  
O 10.0220000   17.3370000   15.5190000  
H 10.2930000   19.6780000   14.3230000  
H 11.7290000   22.2990000   14.2580000  
H 12.4780000   24.0450000   14.5750000  
H 13.9470000   21.5400000   17.8080000  
H 12.3160000   16.8160000   18.3100000  
H 10.0190000   16.6780000   16.2390000  
C 13.4530000   18.9390000   18.7720000  
C 12.8720000   18.7390000   20.0080000  
C 13.6660000   18.7190000   21.1220000  
C 15.0840000   18.8620000   21.1250000  
C 15.7030000   19.0570000   19.8700000  
C 14.8610000   19.1040000   18.7430000  
C 11.5260000   18.5780000   20.5210000  
C 11.5530000   18.2840000   21.8730000  
N 12.9290000   18.3790000   22.2500000  
O  9.1840000   18.4310000   22.1860000  
C 10.4010000   18.2480000   22.7710000  
O 10.4830000   18.0270000   23.9460000  
O 17.0250000   19.0740000   19.6540000  
O 15.4540000   19.2860000   17.5110000  
H 10.6880000   18.6210000   19.9430000  
H  9.4530000   18.7650000   21.2850000  
H 13.2730000   18.0620000   23.1460000  
H 17.1360000   19.3720000   18.6940000  
H 14.8110000   18.9240000   16.7550000  
C 15.9080000   18.8490000   22.3980000  
C 16.5930000   17.6550000   22.7370000  
C 17.2730000   17.6320000   23.9020000  
C 17.3900000   18.6750000   24.8160000  
C 16.8070000   19.9500000   24.4040000  
C 16.0500000   19.9970000   23.2460000  
C 16.6920000   16.2900000   22.1800000  
C 17.5540000   15.5800000   23.0300000  
N 17.8170000   16.3920000   24.1660000  
O 17.7050000   13.6380000   21.6210000  
C 18.1070000   14.2040000   22.7820000  
O 18.7970000   13.6160000   23.5270000  
O 16.9410000   21.0220000   25.2440000  
O 15.4170000   21.1680000   22.8240000  
H 16.1050000   15.9280000   21.2750000  
H 16.9190000   14.1030000   21.3370000  
H 18.3230000   16.0990000   24.9310000  
H 17.6460000   20.8300000   25.8520000  
H 15.4910000   21.7990000   23.5420000  
C 18.1120000   18.3970000   26.1130000  
C 19.5650000   18.2220000   26.1050000  
C 20.2940000   18.0950000   27.2320000  
C 19.6800000   18.0100000   28.4720000  
C 18.2530000   17.9420000   28.4890000  
C 17.4530000   18.2580000   27.3500000  
C 20.5600000   18.2960000   25.0110000  
C 21.7990000   18.1990000   25.5740000  
N 21.6050000   18.0180000   26.9730000  
O 23.1250000   18.1910000   23.5210000  
C 23.1330000   18.3970000   24.8730000  
O 24.0830000   18.8230000   25.4730000  
O 17.7250000   17.7980000   29.7510000  
O 16.1110000   18.4600000   27.4740000  
H 20.4310000   18.5110000   23.9610000  
H 22.2910000   17.6830000   23.3190000  
H 22.3350000   18.0620000   27.6380000  
H 16.7280000   17.8320000   29.6370000  
H 15.8920000   18.8740000   26.6290000  
H 20.3050000   18.0500000   29.3580000  
