78
001 
C  8.9320000   21.0190000   24.4380000  
C  9.1280000   22.2630000   25.0620000  
C 10.4070000   22.8200000   25.0200000  
C 11.4560000   22.1580000   24.3230000  
C 11.3080000   20.9400000   23.6140000  
C 10.0300000   20.3650000   23.6830000  
C 10.9690000   23.8860000   25.7970000  
C 12.3080000   23.9330000   25.4030000  
N 12.6330000   22.8220000   24.5910000  
O 12.6350000   25.7170000   26.8960000  
C 13.2570000   24.9580000   25.9750000  
O 14.4470000   25.0550000   25.6340000  
O  9.8480000   19.2260000   23.0760000  
O  7.7410000   20.4480000   24.5980000  
H  8.2770000   22.7380000   25.6040000  
H 10.5490000   24.3730000   26.6670000  
H 11.7150000   25.5100000   26.7510000  
H 13.5900000   22.6910000   24.2390000  
H 10.5650000   19.0620000   22.4340000  
H  7.6920000   19.7150000   24.0470000  
C 12.5290000   20.3480000   22.9790000  
C 13.1520000   19.2750000   23.6040000  
C 14.1630000   18.5910000   23.0410000  
C 14.8520000   19.0630000   21.8930000  
C 14.4500000   20.2630000   21.3850000  
C 13.2300000   20.8480000   21.8540000  
C 12.7900000   18.4270000   24.7210000  
C 13.7510000   17.4490000   24.8460000  
N 14.5250000   17.4480000   23.6970000  
O 13.2680000   16.7340000   27.0830000  
C 14.0280000   16.5100000   25.9870000  
O 14.8790000   15.6220000   25.8560000  
O 15.0140000   20.8160000   20.2570000  
O 12.6930000   21.9440000   21.1790000  
H 11.9170000   18.5920000   25.3630000  
H 12.7430000   17.5820000   26.9570000  
H 15.1330000   16.7130000   23.4080000  
H 14.3550000   21.3120000   19.7830000  
H 12.0160000   22.4210000   21.7210000  
C 15.9990000   18.3240000   21.2870000  
C 15.9900000   17.8580000   19.9780000  
C 17.0260000   17.2000000   19.4500000  
C 18.2110000   16.7840000   20.1410000  
C 18.3150000   17.2260000   21.4500000  
C 17.1980000   17.9880000   22.0450000  
C 14.9650000   17.8450000   18.9640000  
C 15.4110000   17.0170000   17.8890000  
N 16.7030000   16.6520000   18.2080000  
O 13.5220000   17.1570000   16.5620000  
C 14.7340000   16.6770000   16.6210000  
O 15.2100000   16.0010000   15.7490000  
O 19.5170000   17.1510000   22.1200000  
O 17.3560000   18.4790000   23.3140000  
H 14.0750000   18.4310000   19.0610000  
H 13.3630000   17.5840000   17.3920000  
H 17.3280000   16.1550000   17.5880000  
H 20.2020000   16.7600000   21.5160000  
H 18.1750000   18.0930000   23.7700000  
C 19.3280000   16.0080000   19.6280000  
C 20.5080000   16.6040000   19.1470000  
C 21.6320000   15.8390000   18.7330000  
C 21.5830000   14.4380000   18.6190000  
C 20.4240000   13.7600000   19.0740000  
C 19.3790000   14.5810000   19.6840000  
C 20.9790000   17.9960000   19.0950000  
C 22.2980000   18.0050000   18.7820000  
N 22.6670000   16.6870000   18.3910000  
O 22.7590000   20.3310000   18.8990000  
C 23.2730000   19.1270000   18.7050000  
O 24.4480000   19.0460000   18.5120000  
O 20.2550000   12.4140000   19.0230000  
O 18.2940000   13.9180000   20.1820000  
H 20.4580000   18.8960000   19.4180000  
H 21.8030000   20.1770000   19.0190000  
H 23.6290000   16.4020000   18.2160000  
H 19.5210000   12.2110000   19.6610000  
H 17.6900000   14.6480000   20.3350000  
H 22.3550000   13.8510000   18.1570000  
