78
001 
C 13.5480000   19.6740000   14.4640000  
C 13.4210000   18.4060000   13.8470000  
C 13.6320000   17.2900000   14.6550000  
C 13.8090000   17.3960000   16.0240000  
C 14.0390000   18.6360000   16.6750000  
C 13.8380000   19.8350000   15.8800000  
C 13.5970000   15.9270000   14.3090000  
C 13.7690000   15.2310000   15.5280000  
N 13.9700000   16.1500000   16.5750000  
O 13.8210000   12.9780000   14.5650000  
C 13.8090000   13.7360000   15.6720000  
O 13.8090000   13.1770000   16.7810000  
O 13.7530000   21.1230000   16.4370000  
O 13.2120000   20.7790000   13.6340000  
H 13.0710000   18.3460000   12.7800000  
H 13.4440000   15.5140000   13.3230000  
H 13.7910000   13.6210000   13.8060000  
H 13.9850000   15.9480000   17.5810000  
H 13.9150000   21.0870000   17.4320000  
H 13.3020000   20.4040000   12.7120000  
C 14.4660000   18.7050000   18.1190000  
C 15.8230000   18.7060000   18.5370000  
C 16.1360000   18.8500000   19.8380000  
C 15.2810000   18.8700000   20.9390000  
C 13.8890000   18.7970000   20.5230000  
C 13.5020000   18.8430000   19.1980000  
C 17.0390000   18.8580000   17.7940000  
C 18.0820000   19.0260000   18.6860000  
N 17.5490000   18.9950000   20.0200000  
O 19.8770000   19.3900000   17.1600000  
C 19.5350000   19.1560000   18.3960000  
O 20.4650000   19.0780000   19.2480000  
O 13.0650000   18.8810000   21.5630000  
O 12.1540000   18.8750000   18.8120000  
H 17.1040000   18.7860000   16.7010000  
H 19.0310000   19.5400000   16.7350000  
H 17.9990000   19.1980000   20.8810000  
H 12.1350000   18.7110000   21.2530000  
H 12.2060000   18.7430000   17.8750000  
C 15.8550000   18.9250000   22.3850000  
C 15.4760000   20.0050000   23.2600000  
C 16.0320000   20.1720000   24.4720000  
C 16.8230000   19.1830000   25.0740000  
C 17.1850000   18.0990000   24.3040000  
C 16.7410000   17.9560000   23.0050000  
C 14.6670000   21.1870000   23.0750000  
C 14.6790000   21.8980000   24.2930000  
N 15.6730000   21.3220000   25.0900000  
O 12.8960000   23.2340000   23.7470000  
C 13.7560000   23.0040000   24.7070000  
O 13.9060000   23.6530000   25.7660000  
O 17.9720000   17.1340000   24.8150000  
O 17.1860000   16.8290000   22.3090000  
H 14.2430000   21.5230000   22.1080000  
H 13.1630000   22.5020000   23.1560000  
H 15.8840000   21.6900000   25.9950000  
H 17.7990000   17.1500000   25.8230000  
H 17.8340000   16.4630000   22.9700000  
C 17.4660000   19.3090000   26.4480000  
C 16.8990000   18.7120000   27.6090000  
C 17.5750000   18.6770000   28.7770000  
C 18.8800000   19.1780000   28.8800000  
C 19.4750000   19.7850000   27.7780000  
C 18.7680000   19.8790000   26.5670000  
C 15.5250000   18.2230000   27.8620000  
C 15.5690000   17.8540000   29.2170000  
N 16.8160000   18.1390000   29.7640000  
O 13.3540000   17.1210000   29.2190000  
C 14.4110000   17.2670000   29.9870000  
O 14.4440000   17.0000000   31.2000000  
O 20.6570000   20.3950000   27.8540000  
O 19.3740000   20.4430000   25.4580000  
H 14.7940000   18.0360000   27.0880000  
H 13.6310000   17.3520000   28.3160000  
H 17.0930000   17.8810000   30.6930000  
H 20.8140000   21.0130000   27.0690000  
H 18.6720000   20.5440000   24.8180000  
H 19.4530000   19.0640000   29.7780000  
