78
001 
C 11.6000000   21.1420000   27.2500000  
C 12.2200000   21.0480000   28.5000000  
C 13.4770000   20.4520000   28.5760000  
C 14.1480000   20.2090000   27.4560000  
C 13.6550000   20.4460000   26.1450000  
C 12.2910000   20.8690000   26.1160000  
C 14.3280000   20.2740000   29.6510000  
C 15.5340000   19.7490000   29.1460000  
N 15.4430000   19.8160000   27.7740000  
O 16.5840000   19.1950000   31.2790000  
C 16.6980000   19.1100000   29.8910000  
O 17.5970000   18.5950000   29.2230000  
O 11.6590000   21.1280000   24.9680000  
O 10.4790000   21.8630000   27.1310000  
H 11.7180000   21.3970000   29.3920000  
H 14.0910000   20.3210000   30.7210000  
H 15.6590000   19.6500000   31.4410000  
H 16.0860000   19.3750000   27.1320000  
H 12.0250000   20.5810000   24.2020000  
H 10.0450000   21.3970000   26.4790000  
C 14.4100000   20.0400000   24.8950000  
C 14.7070000   18.6460000   24.6750000  
C 15.2600000   18.2770000   23.4760000  
C 15.6790000   19.1990000   22.4540000  
C 15.4000000   20.5780000   22.7070000  
C 14.8480000   21.0190000   23.9700000  
C 14.3530000   17.4340000   25.3780000  
C 14.7550000   16.4000000   24.5430000  
N 15.2640000   16.9140000   23.3420000  
O 14.0940000   14.6740000   26.0370000  
C 14.5930000   14.9560000   24.8390000  
O 14.9690000   14.0440000   24.0970000  
O 15.6270000   21.5590000   21.8140000  
O 14.5940000   22.3280000   24.2660000  
H 13.8580000   17.3380000   26.3470000  
H 14.0550000   15.5660000   26.5190000  
H 15.5950000   16.4360000   22.5310000  
H 15.5080000   22.4410000   22.2950000  
H 14.0470000   22.3310000   25.0440000  
C 16.2270000   18.7310000   21.1630000  
C 15.2910000   18.4270000   20.1520000  
C 15.7680000   18.0560000   18.9610000  
C 17.0630000   17.8260000   18.5220000  
C 18.0340000   18.1510000   19.5530000  
C 17.6270000   18.5280000   20.8560000  
C 13.8440000   18.4790000   20.0480000  
C 13.5460000   18.1930000   18.7230000  
N 14.7320000   17.7870000   18.1280000  
O 11.2790000   18.8470000   18.7990000  
C 12.2030000   18.3520000   18.0040000  
O 12.0320000   18.2390000   16.7980000  
O 19.3760000   18.0860000   19.3280000  
O 18.5330000   18.8330000   21.8050000  
H 13.0830000   18.6060000   20.8590000  
H 11.6950000   18.7410000   19.6280000  
H 14.7590000   17.5030000   17.1720000  
H 19.5650000   17.7790000   18.4200000  
H 19.3680000   18.3920000   21.5980000  
C 17.4420000   17.3570000   17.1120000  
C 18.2420000   18.1400000   16.2160000  
C 18.5560000   17.6950000   14.9790000  
C 18.1690000   16.4690000   14.4490000  
C 17.4320000   15.6780000   15.3180000  
C 17.1620000   16.0700000   16.6630000  
C 18.7890000   19.4340000   16.4470000  
C 19.1980000   19.8070000   15.1500000  
N 19.1890000   18.6960000   14.3490000  
O 19.6190000   22.1460000   15.6020000  
C 19.6980000   21.1330000   14.6600000  
O 20.1950000   21.2110000   13.5490000  
O 16.9890000   14.4720000   14.9440000  
O 16.5430000   15.2000000   17.4340000  
H 18.6010000   19.9620000   17.3470000  
H 19.1710000   21.6600000   16.3880000  
H 19.3630000   18.6610000   13.3270000  
H 16.8110000   13.9610000   15.7380000  
H 16.6380000   15.6060000   18.3150000  
H 18.3850000   16.1780000   13.4310000  
