78
001 
C 20.4950000   13.2100000   20.8060000  
C 21.2200000   13.2330000   19.6100000  
C 20.8540000   14.2460000   18.7060000  
C 19.8700000   15.1620000   19.0080000  
C 19.1690000   15.1530000   20.2110000  
C 19.5070000   14.1380000   21.1270000  
C 21.4990000   14.8320000   17.4730000  
C 20.9260000   16.1110000   17.2620000  
N 19.8230000   16.2140000   18.1260000  
O 22.7300000   16.9600000   15.8860000  
C 21.4420000   17.0460000   16.3030000  
O 20.7350000   18.0140000   16.0480000  
O 18.9210000   13.9670000   22.3780000  
O 20.9200000   12.2210000   21.7220000  
H 22.1280000   12.6520000   19.4210000  
H 22.3500000   14.4730000   16.9380000  
H 23.0530000   16.1570000   16.3890000  
H 19.2440000   16.9970000   18.2920000  
H 18.3930000   14.7820000   22.6240000  
H 20.5230000   12.4310000   22.5890000  
C 18.0240000   16.1590000   20.4950000  
C 16.6840000   15.7640000   20.7360000  
C 15.7590000   16.7280000   21.1640000  
C 15.9430000   18.1340000   21.2380000  
C 17.2900000   18.5210000   21.0040000  
C 18.3160000   17.5470000   20.6690000  
C 15.9870000   14.4690000   20.6460000  
C 14.6500000   14.8240000   20.9030000  
N 14.4960000   16.1760000   21.3150000  
O 13.8780000   12.5920000   20.6050000  
C 13.5020000   13.8370000   20.8280000  
O 12.3510000   14.0920000   21.1020000  
O 17.7080000   19.7850000   21.0700000  
O 19.5920000   18.0300000   20.3570000  
H 16.3780000   13.4810000   20.3320000  
H 14.8200000   12.5570000   20.3920000  
H 13.6180000   16.7100000   21.5380000  
H 17.0490000   20.3310000   21.5140000  
H 19.4140000   19.0340000   20.2580000  
C 14.8690000   19.0870000   21.5960000  
C 14.7380000   19.4320000   22.9780000  
C 13.7150000   20.2400000   23.4300000  
C 12.8890000   20.9610000   22.6000000  
C 13.0370000   20.6840000   21.1780000  
C 13.9250000   19.7110000   20.6860000  
C 15.3170000   18.9680000   24.1940000  
C 14.6250000   19.5210000   25.2950000  
N 13.7060000   20.3620000   24.7980000  
O 16.2170000   18.8470000   26.9450000  
C 15.0320000   19.4170000   26.7020000  
O 14.4570000   19.9090000   27.6640000  
O 12.2450000   21.3830000   20.2840000  
O 13.9970000   19.4550000   19.3290000  
H 16.2730000   18.4280000   24.3210000  
H 16.5290000   18.4920000   26.0820000  
H 13.1910000   21.0610000   25.3310000  
H 11.3850000   21.7100000   20.6820000  
H 13.2470000   19.9000000   18.8640000  
C 11.8960000   21.9360000   23.1360000  
C 12.0660000   23.3620000   23.2350000  
C 11.1690000   24.1970000   23.8660000  
C  9.9770000   23.7570000   24.3910000  
C  9.6880000   22.3790000   24.3080000  
C 10.6680000   21.4710000   23.7270000  
C 13.2090000   24.1540000   22.8270000  
C 13.0440000   25.3810000   23.4370000  
N 11.7710000   25.4260000   23.9730000  
O 15.3330000   26.1800000   22.9020000  
C 14.1300000   26.4330000   23.6040000  
O 14.0220000   27.4630000   24.2220000  
O  8.4720000   21.8210000   24.7190000  
O 10.3610000   20.1460000   23.5900000  
H 14.1300000   23.7830000   22.4670000  
H 15.1200000   25.3140000   22.5300000  
H 11.4080000   26.2530000   24.4040000  
H  7.8530000   22.3780000   25.1430000  
H  9.4260000   19.9300000   23.9060000  
H  9.3230000   24.4410000   24.9030000  
