78
001 
C 18.0850000   12.5470000   18.4790000  
C 19.4060000   12.2490000   18.8690000  
C 20.1620000   13.2420000   19.5230000  
C 19.6150000   14.4630000   19.7640000  
C 18.2790000   14.8020000   19.5630000  
C 17.5480000   13.8760000   18.7290000  
C 21.4820000   13.1620000   20.1560000  
C 21.6250000   14.4200000   20.7900000  
N 20.4540000   15.2220000   20.5330000  
O 23.4650000   13.5670000   22.1130000  
C 22.6630000   14.6750000   21.8550000  
O 22.8340000   15.7110000   22.5200000  
O 16.2480000   14.2070000   18.3020000  
O 17.2820000   11.5900000   17.8230000  
H 19.8380000   11.2770000   18.6910000  
H 22.1060000   12.3190000   20.2850000  
H 23.1610000   12.7300000   21.6280000  
H 20.2690000   16.1710000   20.9410000  
H 16.0740000   15.1270000   18.5170000  
H 16.5200000   11.9520000   17.4120000  
C 17.6180000   15.9390000   20.1960000  
C 17.1420000   17.0110000   19.4150000  
C 16.5190000   18.0500000   20.0100000  
C 16.1450000   18.2010000   21.3860000  
C 16.7120000   17.1670000   22.1450000  
C 17.4220000   16.1020000   21.5660000  
C 17.0800000   17.2370000   18.0260000  
C 16.2590000   18.3740000   17.8360000  
N 15.9860000   18.8840000   19.1150000  
O 16.4780000   18.5570000   15.5230000  
C 15.9640000   19.1430000   16.6050000  
O 15.2920000   20.1430000   16.4850000  
O 16.4740000   17.2730000   23.4880000  
O 17.8730000   15.0720000   22.4000000  
H 17.5680000   16.7920000   17.1300000  
H 16.9180000   17.7620000   15.8150000  
H 15.5160000   19.7080000   19.4170000  
H 16.8960000   16.4580000   23.9290000  
H 18.2170000   14.3230000   21.8620000  
C 15.3100000   19.3200000   21.8810000  
C 14.1430000   19.0940000   22.6230000  
C 13.2710000   20.1070000   23.0200000  
C 13.4690000   21.4620000   22.7470000  
C 14.7350000   21.7380000   22.1650000  
C 15.6090000   20.6930000   21.7120000  
C 13.5500000   17.8760000   22.9560000  
C 12.3350000   18.2340000   23.5830000  
N 12.2320000   19.6590000   23.5810000  
O 11.5180000   15.9680000   23.8990000  
C 11.3040000   17.2940000   24.0870000  
O 10.2820000   17.6250000   24.5620000  
O 15.1400000   23.0880000   22.0550000  
O 16.7640000   21.0000000   20.9960000  
H 13.9540000   16.9380000   22.7920000  
H 12.3680000   15.9030000   23.3840000  
H 11.5870000   20.2100000   24.1250000  
H 14.4480000   23.5550000   22.6200000  
H 16.8670000   21.9310000   21.1410000  
C 12.5190000   22.5450000   23.1870000  
C 12.9070000   23.4600000   24.1840000  
C 12.1070000   24.5680000   24.4380000  
C 10.9180000   24.7300000   23.7800000  
C 10.4970000   23.7720000   22.9110000  
C 11.2660000   22.7020000   22.5310000  
C 14.0140000   23.5730000   25.0240000  
C 13.7600000   24.6220000   25.8740000  
N 12.5790000   25.2790000   25.4780000  
O 15.6920000   24.0910000   27.2250000  
C 14.6330000   24.9260000   27.0830000  
O 14.4930000   25.8950000   27.8630000  
O  9.2800000   23.9480000   22.3810000  
O 10.7650000   21.8320000   21.5650000  
H 14.9250000   23.0050000   24.9640000  
H 15.5590000   23.4260000   26.5750000  
H 12.1920000   26.1240000   25.9670000  
H  9.1990000   23.2350000   21.7850000  
H 11.5450000   21.3250000   21.2100000  
H 10.2850000   25.6490000   23.9960000  
