78
001 
C  8.9520000   21.6810000   19.6080000  
C  8.6040000   21.1120000   18.3810000  
C  9.4600000   20.1330000   17.9030000  
C 10.5840000   19.7850000   18.6300000  
C 11.0370000   20.4390000   19.7640000  
C 10.1580000   21.4180000   20.2760000  
C  9.5910000   19.4040000   16.6820000  
C 10.7680000   18.6560000   16.7480000  
N 11.2960000   18.7790000   18.0500000  
O 10.6070000   17.7780000   14.6020000  
C 11.3870000   17.8070000   15.6820000  
O 12.4330000   17.2090000   15.7480000  
O 10.5580000   22.2530000   21.3170000  
O  8.0840000   22.6110000   20.1760000  
H  7.7390000   21.3140000   17.6950000  
H  8.9590000   19.5210000   15.7200000  
H  9.8770000   18.3170000   14.9220000  
H 12.1650000   18.4420000   18.3740000  
H 11.4310000   21.9630000   21.6250000  
H  8.4730000   22.7950000   21.0470000  
C 12.3310000   20.0570000   20.4270000  
C 13.6140000   20.3170000   19.9510000  
C 14.7030000   20.0820000   20.6570000  
C 14.8150000   19.3690000   21.8790000  
C 13.5400000   19.0380000   22.4320000  
C 12.3110000   19.4210000   21.7090000  
C 14.0830000   20.8460000   18.6770000  
C 15.4390000   20.9940000   18.7340000  
N 15.8410000   20.4450000   19.9380000  
O 15.7710000   21.9850000   16.5340000  
C 16.3380000   21.4330000   17.6090000  
O 17.5480000   21.3130000   17.6150000  
O 13.4280000   18.5260000   23.7090000  
O 11.0720000   19.2050000   22.2950000  
H 13.4800000   20.9770000   17.8310000  
H 14.8360000   21.9070000   16.8130000  
H 16.7720000   20.2000000   20.2330000  
H 12.4790000   18.5360000   23.8890000  
H 10.2950000   19.3790000   21.6450000  
C 16.1660000   18.8630000   22.3910000  
C 16.7510000   19.3310000   23.5980000  
C 17.9420000   18.9000000   24.0140000  
C 18.7650000   18.0160000   23.3020000  
C 18.1200000   17.3850000   22.2030000  
C 16.8420000   17.8830000   21.7010000  
C 16.3370000   20.2940000   24.6130000  
C 17.3360000   20.3030000   25.6150000  
N 18.2840000   19.3100000   25.2570000  
O 16.3380000   21.9210000   27.0020000  
C 17.4010000   21.0670000   26.8690000  
O 18.3160000   21.1120000   27.6570000  
O 18.9240000   16.6620000   21.3650000  
O 16.4430000   17.3640000   20.5040000  
H 15.4430000   20.8700000   24.6970000  
H 15.8320000   21.6830000   26.1770000  
H 19.1540000   19.0920000   25.7480000  
H 19.8340000   16.5870000   21.7300000  
H 17.2050000   16.8500000   20.1800000  
C 20.0360000   17.4760000   23.8120000  
C 20.0600000   16.0910000   24.1530000  
C 21.2000000   15.5180000   24.6950000  
C 22.4080000   16.2510000   24.9320000  
C 22.4050000   17.5880000   24.5130000  
C 21.2740000   18.1720000   23.8710000  
C 19.1380000   15.0270000   24.2390000  
C 19.6620000   13.9670000   25.0050000  
N 20.9670000   14.3090000   25.2560000  
O 17.7300000   12.7130000   25.0730000  
C 19.0050000   12.7490000   25.4430000  
O 19.4730000   11.8880000   26.1900000  
O 23.5060000   18.3490000   24.6940000  
O 21.2890000   19.3960000   23.3120000  
H 18.1210000   14.9950000   23.8420000  
H 17.5590000   13.3890000   24.4600000  
H 21.5560000   13.8050000   25.8820000  
H 23.3050000   19.2410000   24.3330000  
H 20.3500000   19.6790000   23.1430000  
H 23.2530000   15.7430000   25.3160000  
