78
001 
C 13.8540000   19.0970000   14.4350000  
C 12.4730000   19.5200000   14.3200000  
C 11.8800000   19.9100000   15.5010000  
C 12.5550000   19.9510000   16.6710000  
C 13.8690000   19.4640000   16.8620000  
C 14.5550000   19.0430000   15.6760000  
C 10.5530000   20.5050000   15.6650000  
C 10.4190000   20.7320000   17.0490000  
N 11.6380000   20.2800000   17.6740000  
O  8.2830000   21.7570000   17.1060000  
C  9.3330000   21.3160000   17.8060000  
O  9.2630000   21.3870000   19.0270000  
O 15.8110000   18.4980000   15.7640000  
O 14.4540000   18.6480000   13.3180000  
H 11.9630000   19.7270000   13.3900000  
H  9.7620000   20.5190000   14.8970000  
H  8.3460000   21.3690000   16.1900000  
H 11.9230000   20.4180000   18.6480000  
H 16.0050000   18.0910000   16.6830000  
H 15.4340000   18.5300000   13.4340000  
C 14.4640000   19.3660000   18.2200000  
C 14.6560000   18.0950000   18.8040000  
C 15.0110000   18.0310000   20.1700000  
C 15.0420000   19.1310000   21.1120000  
C 14.8720000   20.3740000   20.4650000  
C 14.5820000   20.5250000   19.1040000  
C 14.7510000   16.7430000   18.2140000  
C 15.0200000   15.9320000   19.3520000  
N 15.1360000   16.7150000   20.4750000  
O 15.3560000   13.7980000   18.1840000  
C 15.2120000   14.4420000   19.3510000  
O 15.2890000   13.8710000   20.3920000  
O 15.0270000   21.4760000   21.2000000  
O 14.3740000   21.7780000   18.6130000  
H 14.6390000   16.4690000   17.1340000  
H 15.3020000   14.5370000   17.5480000  
H 15.3550000   16.4480000   21.3870000  
H 15.6850000   21.2680000   21.9160000  
H 14.7860000   22.4770000   19.1890000  
C 15.5140000   18.9390000   22.5240000  
C 16.7540000   18.3960000   22.8500000  
C 17.1260000   18.2610000   24.1340000  
C 16.3510000   18.5240000   25.2260000  
C 15.0660000   19.0450000   24.9600000  
C 14.6150000   19.2430000   23.6500000  
C 17.7290000   17.8030000   22.0420000  
C 18.7680000   17.3690000   22.8940000  
N 18.3070000   17.5570000   24.1920000  
O 20.2960000   16.8270000   21.2030000  
C 20.0490000   16.7380000   22.5580000  
O 20.8980000   16.4370000   23.3600000  
O 14.2390000   19.3010000   26.0250000  
O 13.3460000   19.7380000   23.5240000  
H 17.6370000   17.7440000   20.9190000  
H 19.4560000   17.0630000   20.7480000  
H 18.7950000   17.2170000   25.0470000  
H 14.3570000   18.5850000   26.6930000  
H 12.8860000   19.7890000   24.4050000  
C 16.8650000   18.3510000   26.6330000  
C 18.0880000   19.0110000   27.0030000  
C 18.6040000   18.8330000   28.2710000  
C 17.9510000   18.0930000   29.2650000  
C 16.7530000   17.4900000   28.9120000  
C 16.1950000   17.5620000   27.6520000  
C 19.0290000   19.8830000   26.2560000  
C 20.0440000   20.1510000   27.1320000  
N 19.8470000   19.4830000   28.3510000  
O 21.3850000   21.4070000   25.6170000  
C 21.3510000   20.8780000   26.8500000  
O 22.3110000   21.0710000   27.6200000  
O 16.1150000   16.7330000   29.9060000  
O 15.0910000   16.7620000   27.2680000  
H 18.9440000   20.3640000   25.2490000  
H 20.6140000   20.9450000   25.2800000  
H 20.4790000   19.4780000   29.0960000  
H 16.1880000   17.2610000   30.6350000  
H 14.6960000   16.4480000   28.0830000  
H 18.2520000   18.0040000   30.2880000  
