78
001 
C 19.1410000   16.5700000   27.8700000  
C 20.1040000   15.6390000   27.5720000  
C 20.2660000   15.2580000   26.2250000  
C 19.5240000   15.8300000   25.2330000  
C 18.5600000   16.8600000   25.4770000  
C 18.4100000   17.2420000   26.8120000  
C 21.2400000   14.4330000   25.5570000  
C 20.9820000   14.5020000   24.2400000  
N 19.9340000   15.3880000   24.0010000  
O 22.8380000   13.2260000   23.4840000  
C 21.7080000   13.8580000   23.1620000  
O 21.4060000   13.8430000   21.9920000  
O 17.5820000   18.2660000   27.1550000  
O 19.0070000   16.8790000   29.1580000  
H 20.7260000   15.3060000   28.3740000  
H 21.8660000   13.7300000   26.0810000  
H 22.7320000   13.2650000   24.4330000  
H 19.4350000   15.5240000   23.1360000  
H 17.6090000   18.9280000   26.3840000  
H 18.5880000   17.7510000   29.0840000  
C 17.8210000   17.5160000   24.3760000  
C 17.0270000   16.7310000   23.5460000  
C 16.4100000   17.1920000   22.3860000  
C 16.4540000   18.5880000   22.0500000  
C 17.2300000   19.3890000   22.9080000  
C 17.9350000   18.8560000   24.0230000  
C 16.6440000   15.3370000   23.5960000  
C 15.9080000   15.1020000   22.4490000  
N 15.7030000   16.2740000   21.7190000  
O 15.5090000   12.8280000   23.0840000  
C 15.5520000   13.7340000   22.0380000  
O 15.2420000   13.4730000   20.9060000  
O 17.3430000   20.7510000   22.6220000  
O 18.8910000   19.7340000   24.5500000  
H 16.9840000   14.5920000   24.3540000  
H 15.6840000   13.3670000   23.9020000  
H 15.2620000   16.4220000   20.7980000  
H 16.6250000   20.8230000   21.9440000  
H 18.9360000   20.5890000   24.1310000  
C 15.6600000   19.2060000   20.8460000  
C 14.2510000   19.1280000   20.7890000  
C 13.5140000   19.7940000   19.9250000  
C 13.9620000   20.4790000   18.8040000  
C 15.3850000   20.5870000   18.8620000  
C 16.2560000   19.9500000   19.7560000  
C 13.2780000   18.4760000   21.7270000  
C 12.0560000   18.8870000   21.3460000  
N 12.1890000   19.7420000   20.2350000  
O 11.0680000   17.5340000   23.1030000  
C 10.8350000   18.5130000   22.1980000  
O  9.6890000   18.9470000   22.0270000  
O 15.9290000   21.2690000   17.7770000  
O 17.6150000   20.2000000   19.6500000  
H 13.5660000   17.9870000   22.6750000  
H 12.0380000   17.4120000   22.9920000  
H 11.4400000   20.2200000   19.8060000  
H 15.1350000   21.2910000   17.1450000  
H 17.6820000   21.0240000   19.0380000  
C 13.1200000   21.2910000   17.8460000  
C 12.4330000   22.4430000   18.3420000  
C 11.6780000   23.2600000   17.5500000  
C 11.5330000   23.0140000   16.1660000  
C 12.2500000   21.8890000   15.6420000  
C 13.0090000   21.0260000   16.5050000  
C 12.4080000   23.1130000   19.6720000  
C 11.7550000   24.3040000   19.5260000  
N 11.3200000   24.3980000   18.2390000  
O 12.3110000   25.1270000   21.7210000  
C 11.7310000   25.4240000   20.5110000  
O 11.2350000   26.5100000   20.2610000  
O 12.2660000   21.6110000   14.2940000  
O 13.7240000   19.9930000   15.9550000  
H 12.9910000   22.8530000   20.5690000  
H 12.8140000   24.3090000   21.5600000  
H 10.6580000   25.1240000   17.9250000  
H 11.7680000   22.3200000   13.7710000  
H 14.0040000   20.2230000   15.0730000  
H 11.0750000   23.7150000   15.4550000  
