78
001 
C 22.2420000   15.3750000   20.4060000  
C 21.9210000   14.1280000   19.8910000  
C 20.6480000   13.7600000   19.4920000  
C 19.6680000   14.6520000   19.6530000  
C 19.7920000   15.9930000   20.1080000  
C 21.1790000   16.3390000   20.5430000  
C 20.0580000   12.5270000   19.0870000  
C 18.6740000   12.7770000   19.1510000  
N 18.4560000   14.1280000   19.4330000  
O 17.8850000   10.5390000   18.9070000  
C 17.5910000   11.8200000   19.0400000  
O 16.4270000   12.1570000   19.0170000  
O 21.4370000   17.5910000   20.9640000  
O 23.5560000   15.7020000   20.9160000  
H 22.6730000   13.3790000   19.8350000  
H 20.5620000   11.5440000   19.0680000  
H 18.9120000   10.5800000   18.6680000  
H 17.5190000   14.6090000   19.5800000  
H 22.0050000   18.0030000   20.2930000  
H 23.3630000   16.1370000   21.7260000  
C 18.6340000   16.8650000   20.3780000  
C 17.5830000   16.4460000   21.2220000  
C 16.6080000   17.3420000   21.5670000  
C 16.4420000   18.6220000   21.0670000  
C 17.4660000   19.0490000   20.1570000  
C 18.5050000   18.1480000   19.7610000  
C 17.3470000   15.2340000   22.0610000  
C 16.2640000   15.5180000   22.8840000  
N 15.7850000   16.7950000   22.5160000  
O 16.4410000   13.6590000   24.4960000  
C 15.7240000   14.7160000   24.0180000  
O 14.7300000   15.1570000   24.5650000  
O 17.3300000   20.2570000   19.5210000  
O 19.4140000   18.5630000   18.8390000  
H 17.9650000   14.3170000   22.1150000  
H 17.1790000   13.6050000   23.8240000  
H 14.8610000   17.1370000   22.7720000  
H 17.7520000   20.2550000   18.6860000  
H 20.0860000   17.8100000   18.8100000  
C 15.3050000   19.4910000   21.4350000  
C 15.0790000   19.9300000   22.7360000  
C 13.9600000   20.6170000   23.0770000  
C 12.9990000   21.1010000   22.1560000  
C 13.1970000   20.6970000   20.8570000  
C 14.3070000   19.8960000   20.4780000  
C 15.8570000   19.9270000   23.9350000  
C 15.1670000   20.4850000   25.0020000  
N 13.9780000   20.9900000   24.4810000  
O 16.6900000   19.7100000   26.7240000  
C 15.5570000   20.3300000   26.4570000  
O 14.8180000   20.7200000   27.3610000  
O 12.2640000   20.9560000   19.9580000  
O 14.4870000   19.5600000   19.1520000  
H 16.8280000   19.4200000   24.0020000  
H 17.3550000   19.8270000   26.0010000  
H 13.2680000   21.3670000   25.0620000  
H 11.3810000   21.1760000   20.4300000  
H 13.6720000   19.8170000   18.6530000  
C 11.8360000   21.8430000   22.6150000  
C 11.6410000   23.1910000   22.1960000  
C 10.5440000   23.8370000   22.5820000  
C  9.6000000   23.3220000   23.4900000  
C  9.7770000   22.0110000   23.9530000  
C 10.9050000   21.3050000   23.5330000  
C 12.4240000   24.0800000   21.4040000  
C 11.6960000   25.2730000   21.2570000  
N 10.5030000   25.0940000   21.9930000  
O 13.1460000   26.3070000   19.7970000  
C 12.0610000   26.4840000   20.5070000  
O 11.4780000   27.5800000   20.6100000  
O  8.8530000   21.4110000   24.8340000  
O 11.1440000   20.0330000   24.1340000  
H 13.2770000   23.7590000   20.9100000  
H 13.3940000   25.4150000   19.9620000  
H  9.7440000   25.7120000   21.8970000  
H  9.1710000   20.5100000   25.1630000  
H 12.0300000   19.7280000   23.9200000  
H  8.7110000   23.9130000   23.8040000  
