78
001 
C 10.2650000   18.7490000   16.8480000  
C 10.0790000   19.9440000   16.1710000  
C 10.9000000   20.9930000   16.5470000  
C 11.8510000   20.8860000   17.4950000  
C 11.9820000   19.8020000   18.3470000  
C 11.1860000   18.6670000   17.9430000  
C 10.8980000   22.4210000   16.1240000  
C 11.8490000   23.0480000   16.8850000  
N 12.4500000   22.1000000   17.7550000  
O 11.3870000   25.2080000   15.9950000  
C 12.1320000   24.4950000   16.8360000  
O 13.0300000   25.0170000   17.4900000  
O 11.4670000   17.5090000   18.6060000  
O  9.5550000   17.6730000   16.4280000  
H  9.2580000   20.0220000   15.4280000  
H 10.3170000   22.8490000   15.2970000  
H 10.5930000   24.6020000   15.8630000  
H 13.0420000   22.3360000   18.5370000  
H 12.2520000   17.6600000   19.1020000  
H  9.5610000   17.0750000   17.2220000  
C 12.9830000   19.6310000   19.3680000  
C 12.6480000   19.4870000   20.7270000  
C 13.6100000   19.2080000   21.6830000  
C 14.9820000   19.0790000   21.4130000  
C 15.3660000   19.3070000   20.0340000  
C 14.3400000   19.5990000   19.0820000  
C 11.3980000   19.4910000   21.3900000  
C 11.6620000   19.0900000   22.7100000  
N 13.0330000   18.7950000   22.9090000  
O  9.4260000   19.2250000   23.3650000  
C 10.6350000   18.9110000   23.7910000  
O 10.9390000   18.6660000   24.9590000  
O 16.7410000   19.3860000   19.6550000  
O 14.7960000   19.7440000   17.8180000  
H 10.4730000   19.8450000   21.0220000  
H  9.5080000   19.3260000   22.4000000  
H 13.5570000   18.7220000   23.7700000  
H 16.8660000   20.0210000   18.9010000  
H 13.8960000   19.6590000   17.3700000  
C 15.9400000   18.7300000   22.4730000  
C 16.7880000   17.6550000   22.3220000  
C 17.6390000   17.3120000   23.3080000  
C 17.7720000   17.9050000   24.5560000  
C 17.0930000   19.1270000   24.7240000  
C 16.1330000   19.5450000   23.6840000  
C 16.9350000   16.6560000   21.3420000  
C 18.0000000   15.8620000   21.7090000  
N 18.3890000   16.1630000   22.9880000  
O 18.3550000   14.7430000   19.6590000  
C 18.6480000   14.7430000   20.9140000  
O 19.5990000   14.0690000   21.3070000  
O 17.3540000   19.9000000   25.8100000  
O 15.4010000   20.6910000   23.8260000  
H 16.4620000   16.5860000   20.3250000  
H 17.6050000   15.3380000   19.4800000  
H 19.1310000   15.6420000   23.5580000  
H 18.0710000   19.4360000   26.2400000  
H 15.8050000   21.1390000   24.5740000  
C 18.7260000   17.3270000   25.5380000  
C 20.1180000   17.1940000   25.2730000  
C 21.0150000   16.8790000   26.2090000  
C 20.5550000   16.5270000   27.5270000  
C 19.2430000   16.5220000   27.8070000  
C 18.3180000   16.9180000   26.7920000  
C 21.0070000   17.5520000   24.1050000  
C 22.3420000   17.4290000   24.5130000  
N 22.3330000   16.9320000   25.8050000  
O 23.2030000   18.2230000   22.3880000  
C 23.5180000   17.9540000   23.7560000  
O 24.6390000   18.0930000   24.1990000  
O 18.7840000   15.9410000   28.9220000  
O 17.0140000   17.0180000   27.1490000  
H 20.7390000   17.8970000   23.1320000  
H 22.1940000   18.0570000   22.4020000  
H 23.1160000   17.0620000   26.4460000  
H 17.7990000   16.0210000   28.9270000  
H 16.5610000   17.3880000   26.3760000  
H 21.2200000   16.1530000   28.3110000  
