78
001 
C 16.3700000   20.3410000   28.8770000  
C 16.4140000   19.2190000   29.6280000  
C 16.3570000   18.0030000   29.0070000  
C 16.2890000   17.8330000   27.7090000  
C 16.2220000   18.9710000   26.8850000  
C 16.2650000   20.2290000   27.4850000  
C 16.2870000   16.6960000   29.5700000  
C 16.3090000   15.7770000   28.4710000  
N 16.3840000   16.5430000   27.3020000  
O 16.0210000   13.7450000   29.6570000  
C 16.0780000   14.3020000   28.4410000  
O 15.9240000   13.6970000   27.4330000  
O 16.2410000   21.4010000   26.6820000  
O 16.5270000   21.5990000   29.4120000  
H 16.5570000   19.3520000   30.7090000  
H 16.3320000   16.4410000   30.6520000  
H 16.3430000   14.4200000   30.2790000  
H 16.2400000   16.1850000   26.3510000  
H 16.2690000   21.1540000   25.7270000  
H 16.2510000   22.1940000   28.7110000  
C 16.0790000   18.8000000   25.3880000  
C 14.8820000   19.2090000   24.8170000  
C 14.6470000   19.2970000   23.4630000  
C 15.6220000   18.8680000   22.5130000  
C 16.8160000   18.3080000   23.0820000  
C 17.0700000   18.3400000   24.4490000  
C 13.5920000   19.5460000   25.4420000  
C 12.6720000   19.8110000   24.4470000  
N 13.3010000   19.6440000   23.2100000  
O 11.0140000   20.5540000   25.8700000  
C 11.2950000   20.2570000   24.6160000  
O 10.4490000   20.2230000   23.7340000  
O 17.6480000   17.7340000   22.2010000  
O 18.3480000   17.9450000   24.9520000  
H 13.3230000   19.4890000   26.4490000  
H 11.8250000   20.8290000   26.3110000  
H 12.9160000   19.6560000   22.3210000  
H 17.3130000   17.9330000   21.2970000  
H 18.8060000   17.4790000   24.2750000  
C 15.3040000   18.7600000   21.1110000  
C 16.0150000   19.5300000   20.1830000  
C 15.7220000   19.4340000   18.8260000  
C 14.7760000   18.6350000   18.2030000  
C 13.9030000   18.0060000   19.0950000  
C 14.1660000   18.0600000   20.5410000  
C 17.0880000   20.4840000   20.2930000  
C 17.3630000   20.9270000   19.0070000  
N 16.4850000   20.3010000   18.1010000  
O 19.0810000   22.5320000   19.4790000  
C 18.3540000   21.9330000   18.5560000  
O 18.5540000   22.1420000   17.3590000  
O 12.8350000   17.2680000   18.5800000  
O 13.3790000   17.2550000   21.3300000  
H 17.5730000   20.6840000   21.2380000  
H 18.8190000   22.1000000   20.2990000  
H 16.4570000   20.4620000   17.0950000  
H 12.9980000   17.1190000   17.6350000  
H 12.6460000   16.8660000   20.7890000  
C 14.6250000   18.7160000   16.7250000  
C 15.7630000   18.3960000   15.9110000  
C 15.7160000   18.5130000   14.5080000  
C 14.5460000   18.8980000   13.8770000  
C 13.4260000   19.2580000   14.6200000  
C 13.4500000   19.1200000   16.0200000  
C 17.0440000   17.9010000   16.2560000  
C 17.7400000   17.7240000   15.0910000  
N 16.9640000   18.1400000   13.9970000  
O 19.9230000   17.1610000   16.1040000  
C 19.1830000   17.3950000   14.9590000  
O 19.6690000   17.2380000   13.8370000  
O 12.3620000   19.7270000   13.9220000  
O 12.3570000   19.6000000   16.6490000  
H 17.6220000   17.8760000   17.1330000  
H 19.2590000   17.0490000   16.7850000  
H 17.2190000   18.0320000   13.0310000  
H 12.6950000   19.7970000   12.9700000  
H 11.9030000   20.2180000   16.0810000  
H 14.6000000   18.8980000   12.7940000  
