78
001 
C 11.1740000   22.5560000   16.8260000  
C  9.8220000   22.2910000   17.2160000  
C  9.6040000   21.6450000   18.4010000  
C 10.6770000   21.2780000   19.1540000  
C 12.0360000   21.5320000   18.9400000  
C 12.2980000   22.1530000   17.6620000  
C  8.4010000   21.1700000   19.0360000  
C  8.7880000   20.6890000   20.2540000  
N 10.1880000   20.7220000   20.3540000  
O  6.6190000   20.2900000   21.1460000  
C  7.9050000   20.2290000   21.3620000  
O  8.3150000   19.8730000   22.4340000  
O 13.5160000   22.3650000   17.1770000  
O 11.3840000   23.3230000   15.7090000  
H  8.9560000   22.6790000   16.7090000  
H  7.3730000   21.4130000   18.7450000  
H  6.5750000   20.5900000   20.2560000  
H 10.7240000   20.4990000   21.2090000  
H 14.0410000   22.4960000   17.9240000  
H 12.3170000   23.1700000   15.5280000  
C 13.1290000   20.9100000   19.7720000  
C 13.1480000   19.5280000   20.1660000  
C 14.2170000   19.0050000   20.8800000  
C 15.3360000   19.6580000   21.2890000  
C 15.3750000   21.0140000   20.9950000  
C 14.2590000   21.6760000   20.3170000  
C 12.3730000   18.3810000   19.7110000  
C 12.9100000   17.2500000   20.3760000  
N 14.0610000   17.6540000   21.1130000  
O 11.4450000   15.6070000   19.4010000  
C 12.4560000   15.8560000   20.2330000  
O 12.9340000   14.9130000   20.8570000  
O 16.4660000   21.9140000   21.3310000  
O 14.4080000   23.0060000   20.0510000  
H 11.5920000   18.4870000   19.0100000  
H 11.1660000   16.5160000   19.1990000  
H 14.6770000   17.1090000   21.6900000  
H 17.2920000   21.3810000   21.3780000  
H 15.0820000   23.3720000   20.6550000  
C 16.4270000   19.0520000   22.0180000  
C 17.5500000   18.4090000   21.4380000  
C 18.5140000   17.7490000   22.1780000  
C 18.4470000   17.5890000   23.5990000  
C 17.3390000   18.2880000   24.2210000  
C 16.3580000   18.9900000   23.4430000  
C 17.8720000   18.0950000   20.0140000  
C 18.9140000   17.1760000   20.0300000  
N 19.3010000   16.9090000   21.3650000  
O 19.1300000   17.1070000   17.7010000  
C 19.6400000   16.6530000   18.8620000  
O 20.6830000   15.9660000   18.8150000  
O 17.1360000   18.1660000   25.5880000  
O 15.3290000   19.6970000   24.0350000  
H 17.4660000   18.6000000   19.0890000  
H 18.3990000   17.6980000   17.9060000  
H 20.0870000   16.3040000   21.6380000  
H 17.6070000   17.3460000   25.8420000  
H 15.3900000   19.5340000   24.9820000  
C 19.2760000   16.6900000   24.4130000  
C 20.3390000   17.0950000   25.2980000  
C 20.8900000   16.1930000   26.1950000  
C 20.7040000   14.8200000   26.2200000  
C 19.7300000   14.3420000   25.2560000  
C 19.0230000   15.2420000   24.3670000  
C 20.9250000   18.3920000   25.4890000  
C 21.8280000   18.1910000   26.5450000  
N 21.7540000   16.8730000   26.9800000  
O 22.6270000   20.4130000   26.4670000  
C 22.7440000   19.1860000   27.0840000  
O 23.4620000   19.0160000   28.0770000  
O 19.3810000   13.0610000   25.2130000  
O 17.9500000   14.6930000   23.6550000  
H 20.6040000   19.2430000   24.7900000  
H 21.8940000   20.2630000   25.8390000  
H 22.2670000   16.5700000   27.7730000  
H 19.8140000   12.4020000   25.8420000  
H 17.9350000   13.7110000   23.7350000  
H 21.3440000   14.1970000   26.8360000  
