78
001 
C 19.1360000   13.0250000   25.2080000  
C 19.1980000   13.4370000   26.5680000  
C 18.7830000   14.7240000   26.9130000  
C 18.3080000   15.5510000   25.9620000  
C 18.1720000   15.2200000   24.6070000  
C 18.7020000   13.9510000   24.2250000  
C 18.9660000   15.5160000   28.1150000  
C 18.2680000   16.6900000   27.9100000  
N 17.8320000   16.7350000   26.5790000  
O 18.5670000   17.3830000   30.1080000  
C 18.1110000   17.6900000   28.9530000  
O 17.5750000   18.7420000   28.7280000  
O 18.7560000   13.5130000   22.9520000  
O 19.6090000   11.8380000   24.8180000  
H 19.6510000   12.8470000   27.3920000  
H 19.5360000   15.2440000   28.9680000  
H 18.7840000   16.4730000   29.9280000  
H 17.2900000   17.5230000   26.1650000  
H 18.5230000   14.2300000   22.2730000  
H 19.2500000   11.6650000   23.9150000  
C 17.4470000   16.1480000   23.6510000  
C 18.1270000   16.8200000   22.5940000  
C 17.3730000   17.6410000   21.8190000  
C 16.0300000   17.9780000   22.0190000  
C 15.3850000   17.3920000   23.1070000  
C 16.0760000   16.4200000   23.8770000  
C 19.4800000   16.8910000   22.1210000  
C 19.5390000   17.8450000   21.0870000  
N 18.2170000   18.2560000   20.9220000  
O 21.9180000   17.6490000   20.5670000  
C 20.7740000   18.3220000   20.3630000  
O 20.7470000   19.2060000   19.4950000  
O 14.1160000   17.8190000   23.4360000  
O 15.3970000   15.8430000   24.9440000  
H 20.2510000   16.2140000   22.5250000  
H 21.6660000   16.9370000   21.1490000  
H 17.9350000   19.0140000   20.2680000  
H 13.6200000   17.2320000   24.1310000  
H 15.9430000   15.3290000   25.4840000  
C 15.4010000   18.9940000   21.1710000  
C 14.2980000   18.6320000   20.3540000  
C 13.7620000   19.6300000   19.5350000  
C 14.3200000   20.9170000   19.4110000  
C 15.4070000   21.2510000   20.2160000  
C 15.9270000   20.3000000   21.1160000  
C 13.6020000   17.4010000   20.1360000  
C 12.6870000   17.7050000   19.0200000  
N 12.7560000   19.0960000   18.7680000  
O 12.0950000   15.4100000   18.8630000  
C 11.9000000   16.6830000   18.3750000  
O 11.1460000   16.9310000   17.4690000  
O 15.9860000   22.5590000   20.1060000  
O 16.9190000   20.6980000   21.9580000  
H 13.5600000   16.4500000   20.7520000  
H 12.7250000   15.4170000   19.5840000  
H 12.2900000   19.6320000   18.0580000  
H 15.2920000   23.2260000   19.7380000  
H 17.0830000   21.6060000   21.6900000  
C 13.7270000   21.9540000   18.4980000  
C 12.5560000   22.6720000   18.8070000  
C 12.0530000   23.7120000   18.0100000  
C 12.6870000   24.1170000   16.8720000  
C 13.9360000   23.4950000   16.5250000  
C 14.3950000   22.3810000   17.3310000  
C 11.6210000   22.4490000   19.8860000  
C 10.5710000   23.3450000   19.6790000  
N 10.7980000   24.0570000   18.4360000  
O  9.4390000   23.0530000   21.7380000  
C  9.5250000   23.8060000   20.6380000  
O  8.7320000   24.6500000   20.3320000  
O 14.5750000   23.8100000   15.2960000  
O 15.4510000   21.7040000   16.9450000  
H 11.6760000   21.7420000   20.7540000  
H  9.9700000   22.2260000   21.6100000  
H 10.2200000   24.7630000   18.1160000  
H 15.2870000   23.1680000   15.1540000  
H 15.7300000   20.9540000   17.5580000  
H 12.3210000   24.9050000   16.2290000  
