78
001 
C 11.0180000   21.3180000   16.1000000  
C 10.6590000   20.1280000   15.3830000  
C 11.2650000   18.9410000   15.7220000  
C 12.2160000   18.8810000   16.7100000  
C 12.5420000   19.9520000   17.5370000  
C 12.0230000   21.2100000   17.1500000  
C 11.0110000   17.6490000   15.2300000  
C 11.7880000   16.7980000   16.0160000  
N 12.5940000   17.5670000   16.8810000  
O 10.7910000   14.8120000   15.2650000  
C 11.7450000   15.3180000   16.0800000  
O 12.3900000   14.6620000   16.8710000  
O 12.2450000   22.2990000   17.9200000  
O 10.5110000   22.5310000   15.9100000  
H  9.9790000   20.1870000   14.5690000  
H 10.0870000   17.3000000   14.6180000  
H 10.3250000   15.5590000   14.8370000  
H 13.3800000   17.2680000   17.4280000  
H 12.7840000   22.0180000   18.7010000  
H 11.1450000   23.1810000   16.2880000  
C 13.3960000   19.7910000   18.7960000  
C 14.7590000   20.0940000   18.8300000  
C 15.5990000   19.6850000   19.8350000  
C 15.2290000   18.9440000   20.9800000  
C 13.8020000   18.6830000   21.0650000  
C 12.9370000   19.1540000   19.9730000  
C 15.6350000   20.6630000   17.8470000  
C 16.8830000   20.7510000   18.3490000  
N 16.8850000   20.0510000   19.5880000  
O 17.8940000   22.0550000   16.5110000  
C 18.0190000   21.5010000   17.7450000  
O 19.0300000   21.6310000   18.4080000  
O 13.2780000   18.0250000   22.1610000  
O 11.6100000   18.8470000   19.9860000  
H 15.2050000   21.0850000   16.9650000  
H 16.9870000   21.8520000   16.1970000  
H 17.7030000   19.6200000   19.9830000  
H 12.4050000   17.7250000   21.9040000  
H 11.2920000   19.3210000   19.2450000  
C 16.2310000   18.5470000   22.0600000  
C 15.9680000   18.9690000   23.4260000  
C 16.8820000   18.6810000   24.4170000  
C 18.1020000   18.0370000   24.2030000  
C 18.3590000   17.5640000   22.8630000  
C 17.4450000   17.8260000   21.8110000  
C 14.9700000   19.7660000   24.1540000  
C 15.4030000   20.0100000   25.4960000  
N 16.5650000   19.2620000   25.6730000  
O 13.8090000   21.6600000   26.1270000  
C 14.8510000   20.9370000   26.5060000  
O 15.3550000   21.0810000   27.6230000  
O 19.5330000   16.8820000   22.4640000  
O 17.7250000   17.2910000   20.5450000  
H 14.0660000   20.1760000   23.6960000  
H 13.5380000   21.2140000   25.3170000  
H 17.3170000   19.3280000   26.3470000  
H 20.1940000   16.7650000   23.1510000  
H 18.4230000   16.5980000   20.6460000  
C 19.1360000   17.8230000   25.2790000  
C 18.8150000   17.1980000   26.4930000  
C 19.7240000   17.2150000   27.5170000  
C 21.0390000   17.8290000   27.4970000  
C 21.3720000   18.4660000   26.2640000  
C 20.4040000   18.4290000   25.1910000  
C 17.5880000   16.5830000   26.9290000  
C 17.8400000   16.2440000   28.2320000  
N 19.1710000   16.5250000   28.6060000  
O 15.5630000   15.5420000   28.6930000  
C 16.8520000   15.7360000   29.1930000  
O 17.1820000   15.3370000   30.3250000  
O 22.5940000   19.1090000   26.0490000  
O 20.6670000   19.2230000   24.1220000  
H 16.6380000   16.4880000   26.3780000  
H 15.6060000   16.0760000   27.9280000  
H 19.5360000   16.3260000   29.5500000  
H 22.5090000   19.5030000   25.2100000  
H 19.7990000   19.2830000   23.6280000  
H 21.7080000   17.9330000   28.3910000  
