78
001 
C 18.6620000   16.8800000   15.0610000  
C 18.1320000   15.5990000   14.7150000  
C 17.1020000   15.0720000   15.4590000  
C 16.7480000   15.7530000   16.6160000  
C 17.2800000   17.0030000   17.1180000  
C 18.3480000   17.5160000   16.3390000  
C 16.4880000   13.7450000   15.4840000  
C 15.7330000   13.7610000   16.6080000  
N 15.8160000   14.9500000   17.2530000  
O 14.8610000   11.6110000   16.1170000  
C 14.8640000   12.6420000   16.9630000  
O 14.1950000   12.5890000   17.9860000  
O 19.0880000   18.6260000   16.7860000  
O 19.5450000   17.5530000   14.2180000  
H 18.6280000   15.1390000   13.9070000  
H 16.5510000   12.9420000   14.7520000  
H 15.6440000   11.6400000   15.4310000  
H 15.3090000   15.2370000   18.1530000  
H 18.7640000   18.9300000   17.6480000  
H 19.7510000   18.4930000   14.4730000  
C 16.8670000   17.6100000   18.3730000  
C 16.9840000   16.9950000   19.5930000  
C 16.5120000   17.5990000   20.7330000  
C 15.8780000   18.8260000   20.6850000  
C 15.8370000   19.5890000   19.5050000  
C 16.3120000   18.9990000   18.3300000  
C 17.7250000   15.8750000   20.0520000  
C 17.6850000   15.9010000   21.4290000  
N 16.8280000   16.9210000   21.8640000  
O 19.0740000   13.9980000   21.8460000  
C 18.2630000   14.9550000   22.3630000  
O 18.0670000   15.0340000   23.5760000  
O 15.1810000   20.7850000   19.3980000  
O 16.1580000   19.6650000   17.1090000  
H 18.3530000   15.1820000   19.4950000  
H 18.8740000   13.8980000   20.9140000  
H 16.7380000   17.2180000   22.8510000  
H 15.3540000   21.2640000   18.5670000  
H 16.3200000   18.8880000   16.4810000  
C 15.3300000   19.4340000   21.9620000  
C 16.0920000   19.6090000   23.1390000  
C 15.4680000   20.0390000   24.2900000  
C 14.1260000   20.4090000   24.4970000  
C 13.3490000   20.1260000   23.3600000  
C 13.9150000   19.6390000   22.1590000  
C 17.5240000   19.4920000   23.4990000  
C 17.6260000   19.8700000   24.8530000  
N 16.3880000   20.2430000   25.2740000  
O 20.0040000   19.4500000   24.8860000  
C 18.8950000   19.9090000   25.6220000  
O 18.9670000   20.2140000   26.7660000  
O 12.0560000   20.2820000   23.5430000  
O 13.0730000   19.3390000   21.1170000  
H 18.2750000   19.1430000   22.8290000  
H 19.7190000   19.3480000   24.0160000  
H 16.2640000   20.7910000   26.1470000  
H 11.8440000   20.5970000   24.4440000  
H 12.1300000   19.5170000   21.4020000  
C 13.5550000   20.8570000   25.7840000  
C 13.1390000   22.2160000   25.9110000  
C 12.5030000   22.6070000   27.0590000  
C 12.1920000   21.6780000   28.0630000  
C 12.6030000   20.3560000   27.9640000  
C 13.2620000   19.9460000   26.8190000  
C 13.3400000   23.3440000   25.0790000  
C 12.6680000   24.3830000   25.7090000  
N 12.1340000   23.8980000   26.9010000  
O 13.4740000   25.9740000   24.0470000  
C 12.6860000   25.7410000   25.1740000  
O 12.0740000   26.6770000   25.6960000  
O 12.3200000   19.5590000   29.0250000  
O 13.6420000   18.6610000   26.8020000  
H 13.7140000   23.3150000   24.0360000  
H 13.9050000   25.0850000   23.8230000  
H 11.7030000   24.3970000   27.5830000  
H 12.1580000   18.6620000   28.6370000  
H 13.7610000   18.2870000   25.8580000  
H 11.6600000   21.9860000   29.0170000  
