78
001 
C 10.2880000   22.1820000   25.9060000  
C  9.0340000   21.9310000   25.2760000  
C  9.0360000   21.2820000   24.0480000  
C 10.1400000   20.7540000   23.4830000  
C 11.4450000   20.9030000   24.0540000  
C 11.4750000   21.6690000   25.3030000  
C  7.9300000   20.8840000   23.1650000  
C  8.5430000   20.3600000   21.9970000  
N  9.9280000   20.1910000   22.2590000  
O  6.6120000   20.3660000   20.7880000  
C  7.8820000   20.0040000   20.7840000  
O  8.4540000   19.3730000   19.9040000  
O 12.7290000   21.8030000   25.8800000  
O 10.3800000   22.8010000   27.0660000  
H  8.0800000   22.3750000   25.6890000  
H  6.8980000   20.8470000   23.3580000  
H  6.4350000   20.7670000   21.6870000  
H 10.6050000   19.8670000   21.5620000  
H 13.3630000   21.4040000   25.2450000  
H 11.2990000   22.7600000   27.4040000  
C 12.6630000   20.3200000   23.4730000  
C 13.5790000   21.0530000   22.6820000  
C 14.6370000   20.4210000   22.0870000  
C 14.9470000   19.1050000   22.1140000  
C 13.9290000   18.3450000   22.6930000  
C 12.8350000   18.9240000   23.4040000  
C 13.6930000   22.5050000   22.3940000  
C 14.8130000   22.6060000   21.5980000  
N 15.4250000   21.3690000   21.5130000  
O 14.6500000   24.9770000   21.1250000  
C 15.3550000   23.8510000   20.9300000  
O 16.4250000   23.8900000   20.3650000  
O 13.9950000   17.0140000   22.6880000  
O 11.9600000   18.1110000   24.0400000  
H 13.0560000   23.2650000   22.6340000  
H 13.9470000   24.5350000   21.6050000  
H 16.3040000   21.0910000   21.0320000  
H 13.1640000   16.6630000   23.0640000  
H 11.1930000   18.5950000   24.3700000  
C 16.1880000   18.5150000   21.4380000  
C 17.1480000   17.7820000   22.2350000  
C 18.2600000   17.3260000   21.6200000  
C 18.5610000   17.4370000   20.2660000  
C 17.7410000   18.2230000   19.4700000  
C 16.5090000   18.6570000   20.0390000  
C 17.3950000   17.6290000   23.6720000  
C 18.6380000   16.9730000   23.7980000  
N 19.1880000   16.8880000   22.5370000  
O 18.6080000   16.7780000   26.2080000  
C 19.3140000   16.5740000   25.0610000  
O 20.3460000   16.0110000   25.0200000  
O 18.0750000   18.4840000   18.1890000  
O 15.6820000   19.3920000   19.2390000  
H 16.6870000   17.9840000   24.3950000  
H 17.8870000   17.2830000   25.8260000  
H 20.0450000   16.5420000   22.2690000  
H 18.8380000   17.9200000   18.0390000  
H 16.2610000   19.7570000   18.5350000  
C 19.9460000   17.0980000   19.7330000  
C 20.2760000   15.8780000   19.1030000  
C 21.5230000   15.4750000   18.8850000  
C 22.6490000   16.2460000   19.3430000  
C 22.4070000   17.5110000   19.8670000  
C 21.0710000   17.9640000   20.0820000  
C 19.3750000   14.7650000   18.8720000  
C 20.2350000   13.7080000   18.4900000  
N 21.5350000   14.1570000   18.5040000  
O 18.4260000   12.2160000   18.0000000  
C 19.8170000   12.3860000   17.9630000  
O 20.5560000   11.5050000   17.5550000  
O 23.4390000   18.1550000   20.3940000  
O 20.8340000   19.2110000   20.6620000  
H 18.2180000   14.7040000   18.9450000  
H 17.8710000   12.9790000   18.2620000  
H 22.3840000   13.6630000   18.2350000  
H 23.4810000   19.1230000   20.0810000  
H 19.8480000   19.2920000   20.7660000  
H 23.6570000   15.8560000   19.2600000  
