78
001 
C 18.2300000   16.8520000   14.9640000  
C 17.6610000   15.6130000   14.6390000  
C 16.9750000   14.8470000   15.6140000  
C 16.8440000   15.3830000   16.8630000  
C 17.1380000   16.7000000   17.2020000  
C 17.9470000   17.3710000   16.2360000  
C 16.3050000   13.5580000   15.5660000  
C 15.6920000   13.4050000   16.8030000  
N 15.9310000   14.5810000   17.5250000  
O 14.5970000   11.3690000   16.2970000  
C 14.6630000   12.4110000   17.1860000  
O 13.9740000   12.4550000   18.1720000  
O 18.4910000   18.6050000   16.5790000  
O 19.0900000   17.4710000   14.1350000  
H 17.7320000   15.2090000   13.6030000  
H 16.4360000   12.8290000   14.7590000  
H 15.3070000   11.4980000   15.6910000  
H 15.5150000   14.8160000   18.4170000  
H 17.9660000   18.8830000   17.3660000  
H 19.1530000   18.3660000   14.5700000  
C 16.6750000   17.2660000   18.5240000  
C 17.5900000   17.5130000   19.5230000  
C 17.2760000   17.9530000   20.7600000  
C 16.0200000   18.4810000   21.1440000  
C 15.0150000   18.1990000   20.1660000  
C 15.3700000   17.6090000   18.8820000  
C 19.0170000   17.3340000   19.5350000  
C 19.5230000   17.8110000   20.7290000  
N 18.4500000   18.2060000   21.5390000  
O 21.7590000   17.4240000   20.3850000  
C 20.8620000   17.8710000   21.2350000  
O 21.1180000   18.3060000   22.3120000  
O 13.6740000   18.5270000   20.2200000  
O 14.3650000   17.5320000   18.0380000  
H 19.5530000   16.9530000   18.6640000  
H 21.2060000   17.0370000   19.6550000  
H 18.5350000   18.5470000   22.4780000  
H 13.2610000   18.0910000   19.4920000  
H 14.7600000   17.5860000   17.1270000  
C 15.7780000   19.1740000   22.4420000  
C 15.4310000   20.5200000   22.4130000  
C 14.9360000   21.1410000   23.5340000  
C 15.0330000   20.5220000   24.8000000  
C 15.5030000   19.1890000   24.8640000  
C 15.8120000   18.4570000   23.6990000  
C 15.3990000   21.5490000   21.3690000  
C 14.8490000   22.7200000   21.9390000  
N 14.7030000   22.4930000   23.2960000  
O 14.6440000   23.9650000   19.8620000  
C 14.6170000   23.9440000   21.2190000  
O 14.1820000   24.8720000   21.8630000  
O 15.7310000   18.5500000   26.0510000  
O 16.1820000   17.1170000   23.7670000  
H 15.7090000   21.3300000   20.3410000  
H 14.7570000   23.0520000   19.5650000  
H 14.2730000   23.0740000   23.9510000  
H 15.8490000   19.2930000   26.6600000  
H 15.9470000   16.7470000   24.6220000  
C 14.5810000   21.2760000   26.0230000  
C 13.5210000   20.7990000   26.7800000  
C 13.1570000   21.4590000   27.9030000  
C 13.7810000   22.5760000   28.5110000  
C 14.8720000   23.0330000   27.8640000  
C 15.2710000   22.3520000   26.6250000  
C 12.6750000   19.6010000   26.6940000  
C 11.7800000   19.7240000   27.7560000  
N 12.0970000   20.8650000   28.5070000  
O 10.1450000   18.1170000   27.0180000  
C 10.5380000   18.9600000   28.0090000  
O  9.8730000   19.1480000   29.0470000  
O 15.4920000   24.1020000   28.3540000  
O 16.3630000   22.8650000   25.9400000  
H 12.6180000   19.0270000   25.7950000  
H 10.7510000   18.2510000   26.2920000  
H 11.5310000   21.3460000   29.2060000  
H 16.1880000   24.1480000   27.7310000  
H 16.5750000   22.1200000   25.2980000  
H 13.4210000   23.0060000   29.4430000  
