78
001 
C 10.9790000   23.8870000   18.8360000  
C  9.6520000   23.6130000   19.0650000  
C  9.4020000   22.4300000   19.8080000  
C 10.4140000   21.6580000   20.3060000  
C 11.7680000   21.9190000   20.1530000  
C 12.0510000   23.0260000   19.2820000  
C  8.2410000   21.9800000   20.5470000  
C  8.5870000   20.8910000   21.3010000  
N  9.9920000   20.5910000   21.1140000  
O  6.4080000   20.5930000   22.2820000  
C  7.6840000   20.0980000   22.1450000  
O  8.0670000   19.0940000   22.7460000  
O 13.3480000   23.4520000   19.0870000  
O 11.2810000   25.0780000   18.2730000  
H  8.8200000   24.2320000   18.7720000  
H  7.2490000   22.4180000   20.4050000  
H  6.3310000   21.1460000   21.5230000  
H 10.6170000   19.8380000   21.4280000  
H 13.7390000   23.1560000   19.8550000  
H 12.2360000   25.2170000   18.3070000  
C 12.8430000   21.0050000   20.8240000  
C 13.0040000   19.6350000   20.4570000  
C 14.0810000   18.8760000   20.8860000  
C 14.9890000   19.3800000   21.8790000  
C 14.8540000   20.7610000   22.2020000  
C 13.8120000   21.5120000   21.6980000  
C 12.3430000   18.7430000   19.5120000  
C 13.0880000   17.6370000   19.4140000  
N 14.1020000   17.6410000   20.3880000  
O 12.3180000   16.8120000   17.3630000  
C 13.0960000   16.6320000   18.4080000  
O 13.8590000   15.6510000   18.4110000  
O 15.6050000   21.3030000   23.1420000  
O 13.7270000   22.8540000   22.1550000  
H 11.5550000   18.9950000   18.7930000  
H 11.7880000   17.6240000   17.4580000  
H 14.8370000   16.9710000   20.5930000  
H 16.4230000   20.7760000   23.3020000  
H 14.3440000   22.9620000   22.8710000  
C 16.0800000   18.5940000   22.4370000  
C 17.1020000   18.0690000   21.6100000  
C 18.1380000   17.3540000   22.2050000  
C 18.2970000   17.0470000   23.5840000  
C 17.2750000   17.5890000   24.4170000  
C 16.1430000   18.3160000   23.8580000  
C 17.3140000   17.8660000   20.1510000  
C 18.4320000   17.0710000   19.9900000  
N 18.9500000   16.7720000   21.2550000  
O 18.2420000   16.9000000   17.5450000  
C 18.9210000   16.6330000   18.6720000  
O 19.9600000   16.0280000   18.6230000  
O 17.2490000   17.2490000   25.7840000  
O 15.1310000   18.8710000   24.6790000  
H 16.6890000   18.3460000   19.3740000  
H 17.4180000   17.3460000   17.8230000  
H 19.6980000   16.1580000   21.5450000  
H 18.0870000   16.7510000   25.9810000  
H 15.3470000   18.6890000   25.6270000  
C 19.4120000   16.1940000   24.1410000  
C 20.6990000   16.6760000   24.2870000  
C 21.7620000   15.8410000   24.6100000  
C 21.5620000   14.5440000   25.0510000  
C 20.2580000   13.9970000   24.9140000  
C 19.1790000   14.8000000   24.3910000  
C 21.2590000   18.0150000   24.1600000  
C 22.6300000   17.8970000   24.2280000  
N 22.9370000   16.6140000   24.5890000  
O 23.1170000   20.0800000   23.3370000  
C 23.6050000   18.9540000   23.8730000  
O 24.8440000   18.8450000   23.9970000  
O 20.1200000   12.5880000   25.0080000  
O 17.9560000   14.2700000   24.1530000  
H 20.8220000   18.8760000   23.7920000  
H 22.2330000   19.8010000   23.0310000  
H 23.9000000   16.2470000   24.6940000  
H 20.9670000   12.2290000   25.3910000  
H 18.0460000   13.3250000   23.8650000  
H 22.4600000   13.9540000   25.2160000  
