78
001 
C 22.1740000   15.5110000   23.7520000  
C 21.9290000   14.3410000   24.5430000  
C 20.6550000   14.2230000   24.9800000  
C 19.6250000   15.0760000   24.5950000  
C 19.7680000   16.0930000   23.6650000  
C 21.1260000   16.3300000   23.2820000  
C 20.0130000   13.0990000   25.5800000  
C 18.6370000   13.2690000   25.4430000  
N 18.4100000   14.5250000   24.7980000  
O 18.0170000   11.2160000   26.3360000  
C 17.5590000   12.3840000   25.8430000  
O 16.3610000   12.6500000   25.7760000  
O 21.3260000   17.4760000   22.4690000  
O 23.4620000   15.7290000   23.2620000  
H 22.7400000   13.6800000   24.7650000  
H 20.4380000   12.1580000   25.9430000  
H 18.8830000   11.3740000   25.9450000  
H 17.4830000   14.9400000   24.5300000  
H 20.5410000   18.0100000   22.6680000  
H 23.4640000   16.4240000   22.5680000  
C 18.5940000   16.7880000   23.0800000  
C 17.5070000   17.2290000   23.8790000  
C 16.4050000   17.8480000   23.2880000  
C 16.2440000   18.0420000   21.9080000  
C 17.2750000   17.4930000   21.1380000  
C 18.3910000   16.8400000   21.6750000  
C 17.3780000   17.4250000   25.3140000  
C 16.2930000   18.3430000   25.4800000  
N 15.6410000   18.5650000   24.2320000  
O 16.5040000   18.7510000   27.8350000  
C 15.8150000   19.0600000   26.7350000  
O 14.8420000   19.7560000   26.7510000  
O 17.2720000   17.7340000   19.7650000  
O 19.2320000   16.2700000   20.7440000  
H 18.0650000   17.1740000   26.0880000  
H 17.0460000   18.0110000   27.6240000  
H 14.9240000   19.3140000   24.0950000  
H 16.5100000   18.2690000   19.5970000  
H 18.6940000   16.1640000   19.9370000  
C 15.1490000   18.8150000   21.3250000  
C 15.3440000   20.0770000   20.7510000  
C 14.3330000   20.7510000   20.1700000  
C 13.0310000   20.3900000   20.2930000  
C 12.7150000   19.0920000   20.7610000  
C 13.7920000   18.2960000   21.1970000  
C 16.5120000   20.8780000   20.5680000  
C 16.0570000   22.0290000   19.8920000  
N 14.7000000   22.0550000   19.8720000  
O 18.2880000   22.9760000   19.5440000  
C 16.9320000   23.2110000   19.5060000  
O 16.4950000   24.2270000   19.0250000  
O 11.3650000   18.6550000   20.6580000  
O 13.4940000   17.0560000   21.6100000  
H 17.5160000   20.6250000   20.9260000  
H 18.3410000   22.0140000   19.6740000  
H 14.0950000   22.9070000   19.7280000  
H 10.8210000   19.4650000   20.6930000  
H 12.5070000   16.9400000   21.7400000  
C 11.8620000   21.3520000   20.0210000  
C 11.4930000   21.6550000   18.6400000  
C 10.3950000   22.4780000   18.3880000  
C  9.5980000   23.0550000   19.3190000  
C  9.8790000   22.8130000   20.6560000  
C 10.9970000   21.9970000   20.9930000  
C 12.0600000   21.2550000   17.3440000  
C 11.3310000   21.8890000   16.3820000  
N 10.2750000   22.5540000   17.0280000  
O 12.5030000   20.9390000   14.4590000  
C 11.4370000   21.5870000   14.9250000  
O 10.4360000   21.7760000   14.1910000  
O  9.3100000   23.5680000   21.6370000  
O 11.2640000   21.8340000   22.3250000  
H 13.0000000   20.7120000   17.2140000  
H 13.0570000   20.9050000   15.2310000  
H  9.5630000   23.0030000   16.5280000  
H  8.5490000   24.1070000   21.2660000  
H 10.6260000   22.3670000   22.7880000  
H  8.8580000   23.7780000   19.0520000  
