78
001 
C  9.7940000   20.6040000   25.6680000  
C  9.9050000   21.8390000   26.4440000  
C 11.1830000   22.4060000   26.5130000  
C 12.2970000   21.8380000   25.9050000  
C 12.2150000   20.7220000   25.0120000  
C 10.9280000   20.0760000   25.0030000  
C 11.5640000   23.6190000   27.1330000  
C 12.8930000   23.8160000   26.7570000  
N 13.4150000   22.6710000   26.0380000  
O 13.1020000   26.0480000   27.6030000  
C 13.7330000   25.0160000   27.0060000  
O 14.8980000   25.1850000   26.7480000  
O 10.8190000   19.0180000   24.1440000  
O  8.5790000   19.9290000   25.6910000  
H  9.0760000   22.2800000   26.9980000  
H 10.9390000   24.3520000   27.6670000  
H 12.3000000   25.7210000   27.8290000  
H 14.3710000   22.4510000   25.7090000  
H 11.7060000   19.0620000   23.7580000  
H  8.3770000   19.4150000   24.9800000  
C 13.3070000   20.2130000   24.1610000  
C 13.7200000   18.8710000   24.2320000  
C 14.5540000   18.2870000   23.3240000  
C 15.1630000   18.9260000   22.2890000  
C 14.7820000   20.2820000   22.1210000  
C 13.9530000   20.9540000   23.1230000  
C 13.3610000   17.8190000   25.1860000  
C 14.0300000   16.7020000   24.7490000  
N 14.8000000   17.0160000   23.6620000  
O 13.2810000   15.4000000   26.5120000  
C 14.1570000   15.4690000   25.5110000  
O 14.8980000   14.5000000   25.2630000  
O 15.2780000   20.9330000   20.9940000  
O 13.6550000   22.2680000   22.8810000  
H 12.7640000   17.8720000   26.0740000  
H 12.8120000   16.1890000   26.3920000  
H 15.6460000   16.5470000   23.3760000  
H 15.0020000   21.8120000   21.0600000  
H 12.8240000   22.4870000   23.3600000  
C 16.1400000   18.2150000   21.3600000  
C 15.7620000   17.9920000   20.0320000  
C 16.5870000   17.2880000   19.2160000  
C 17.8870000   16.7610000   19.5150000  
C 18.2660000   17.1040000   20.8110000  
C 17.4590000   17.8000000   21.7330000  
C 14.6070000   18.4170000   19.2710000  
C 14.6740000   17.7760000   18.0830000  
N 15.9930000   17.1580000   17.9760000  
O 12.4790000   18.3020000   17.2410000  
C 13.6820000   17.7550000   16.9170000  
O 13.9550000   17.2140000   15.8460000  
O 19.4490000   16.6690000   21.2240000  
O 17.9110000   17.9830000   23.0570000  
H 13.7420000   18.9940000   19.6100000  
H 12.6150000   18.7790000   18.0530000  
H 16.3760000   16.7870000   17.1650000  
H 19.8520000   16.0080000   20.6370000  
H 18.8390000   17.6270000   23.0560000  
C 18.8270000   16.1380000   18.5400000  
C 20.0140000   16.8000000   18.0400000  
C 20.8100000   16.2090000   17.1030000  
C 20.5010000   14.9690000   16.5180000  
C 19.3770000   14.2800000   16.9520000  
C 18.5270000   14.8610000   17.9570000  
C 20.6070000   18.0870000   18.3810000  
C 21.7130000   18.2540000   17.5110000  
N 21.8080000   17.0940000   16.6840000  
O 22.5880000   20.1570000   18.5830000  
C 22.7050000   19.3460000   17.5060000  
O 23.4980000   19.6230000   16.6710000  
O 19.1490000   13.0460000   16.4700000  
O 17.4580000   14.1680000   18.4390000  
H 20.1610000   18.7210000   19.1430000  
H 21.9830000   19.7550000   19.1150000  
H 22.4960000   16.9290000   15.9800000  
H 18.3200000   12.7450000   16.9450000  
H 16.8960000   14.7290000   18.9840000  
H 21.1320000   14.4950000   15.7900000  
