78
001 
C 11.0600000   24.2550000   22.7680000  
C 10.1040000   24.0060000   23.7660000  
C 10.2880000   22.8420000   24.5430000  
C 11.3550000   22.0340000   24.3030000  
C 12.2240000   22.2010000   23.2070000  
C 12.1170000   23.4160000   22.5270000  
C  9.5480000   22.2350000   25.5250000  
C 10.1510000   21.0620000   25.8910000  
N 11.2100000   20.8760000   25.0090000  
O  8.5200000   20.2810000   27.3860000  
C  9.6340000   19.9670000   26.6500000  
O 10.0580000   18.8320000   26.7000000  
O 12.7050000   23.5270000   21.3290000  
O 10.8060000   25.3240000   21.9780000  
H  9.2920000   24.7060000   24.0210000  
H  8.6300000   22.5860000   25.9170000  
H  8.4290000   21.2610000   27.3530000  
H 11.7760000   20.0070000   24.8330000  
H 12.8140000   22.5940000   21.0750000  
H 11.6860000   25.6150000   21.5460000  
C 13.1060000   21.0990000   22.8010000  
C 12.7030000   19.8220000   22.3080000  
C 13.6490000   18.8720000   21.9830000  
C 15.0380000   19.0670000   22.0840000  
C 15.3420000   20.3020000   22.6800000  
C 14.4520000   21.3750000   22.9540000  
C 11.3940000   19.1990000   21.9690000  
C 11.6460000   17.8970000   21.5530000  
N 13.0600000   17.7520000   21.4220000  
O  9.3760000   17.2070000   21.4710000  
C 10.6760000   16.8240000   21.3700000  
O 11.0080000   15.6540000   21.1770000  
O 16.6280000   20.6250000   22.8670000  
O 14.9790000   22.3940000   23.6600000  
H 10.3970000   19.5590000   22.2680000  
H  9.5000000   18.1300000   21.6840000  
H 13.5930000   16.9630000   21.1370000  
H 17.0550000   19.7560000   22.7370000  
H 15.9390000   22.3730000   23.6720000  
C 16.0850000   18.1030000   21.6040000  
C 16.9590000   18.6240000   20.6340000  
C 17.9100000   17.7400000   20.0910000  
C 18.1350000   16.3750000   20.4890000  
C 17.2540000   15.8840000   21.5100000  
C 16.2090000   16.7330000   22.0060000  
C 17.2650000   19.8960000   20.0440000  
C 18.4160000   19.7230000   19.2700000  
N 18.7670000   18.3460000   19.2880000  
O 18.7450000   21.9860000   18.6130000  
C 19.1380000   20.6920000   18.4710000  
O 20.1210000   20.3510000   17.8310000  
O 17.3080000   14.5830000   21.9310000  
O 15.3610000   16.2930000   22.9740000  
H 16.7770000   20.8590000   20.1620000  
H 18.0640000   21.9890000   19.2890000  
H 19.6020000   17.9390000   18.8890000  
H 17.7970000   13.9710000   21.3800000  
H 15.5520000   15.4000000   23.2970000  
C 19.1870000   15.5530000   19.8970000  
C 20.5090000   15.7010000   20.3410000  
C 21.5220000   15.1960000   19.5390000  
C 21.2760000   14.5330000   18.3060000  
C 19.9300000   14.3120000   17.8930000  
C 18.9250000   14.8380000   18.7000000  
C 21.0710000   16.4410000   21.4260000  
C 22.4380000   16.2270000   21.2890000  
N 22.6950000   15.4770000   20.1450000  
O 23.0420000   17.2370000   23.3390000  
C 23.4750000   16.5790000   22.2740000  
O 24.6580000   16.3030000   22.1810000  
O 19.5860000   13.4290000   16.8920000  
O 17.6380000   14.5830000   18.2410000  
H 20.5960000   17.0170000   22.1500000  
H 22.0930000   17.3670000   23.2990000  
H 23.6010000   15.2250000   19.8350000  
H 20.4430000   13.1350000   16.4700000  
H 17.6500000   13.8000000   17.7080000  
H 22.1010000   14.2170000   17.6570000  
