78
001 
C 15.4320000   17.9550000   14.5370000  
C 14.3940000   18.5950000   13.8580000  
C 13.4540000   19.2230000   14.6450000  
C 13.5370000   19.3380000   16.0250000  
C 14.5980000   18.7330000   16.7810000  
C 15.5670000   18.0430000   15.9830000  
C 12.2950000   19.9270000   14.2710000  
C 11.5880000   20.3450000   15.4380000  
N 12.4320000   19.9420000   16.5280000  
O  9.6960000   21.2310000   14.3110000  
C 10.3060000   21.0450000   15.5150000  
O  9.8800000   21.4830000   16.5540000  
O 16.4840000   17.2730000   16.5900000  
O 16.1830000   17.1220000   13.8440000  
H 14.3530000   18.6510000   12.7770000  
H 11.8540000   20.0060000   13.2570000  
H 10.2010000   20.8460000   13.5380000  
H 12.2350000   19.9800000   17.5340000  
H 16.0250000   16.7450000   17.3630000  
H 16.8390000   16.7840000   14.4930000  
C 14.8130000   18.8570000   18.2300000  
C 14.3750000   17.8720000   19.1270000  
C 14.7450000   17.8960000   20.4110000  
C 15.3540000   18.9780000   21.1090000  
C 15.7110000   20.0320000   20.2500000  
C 15.4730000   19.9640000   18.8570000  
C 13.8000000   16.5750000   18.8490000  
C 13.7850000   15.9040000   20.0340000  
N 14.4300000   16.6730000   21.0150000  
O 12.6530000   14.0200000   19.2480000  
C 13.2880000   14.5300000   20.2910000  
O 13.4980000   13.8650000   21.2610000  
O 16.4490000   21.1170000   20.7080000  
O 15.9030000   20.9490000   18.0800000  
H 13.4650000   16.1420000   17.9000000  
H 12.6210000   14.7450000   18.6160000  
H 14.6960000   16.3460000   21.9530000  
H 16.0520000   21.4010000   21.5180000  
H 16.0070000   21.7630000   18.6210000  
C 15.7190000   18.9790000   22.5390000  
C 16.6590000   18.0790000   23.0060000  
C 17.0120000   18.0320000   24.3200000  
C 16.4570000   18.7810000   25.3270000  
C 15.3780000   19.5540000   24.9380000  
C 15.1070000   19.7500000   23.5630000  
C 17.6320000   17.3060000   22.2770000  
C 18.5230000   16.8450000   23.2040000  
N 18.2230000   17.3560000   24.4680000  
O 20.0520000   15.7010000   21.7260000  
C 19.7230000   15.9600000   22.9830000  
O 20.4360000   15.6250000   23.9490000  
O 14.6590000   20.2180000   25.8670000  
O 14.0700000   20.5840000   23.2460000  
H 17.7160000   17.2420000   21.1560000  
H 19.5200000   16.3340000   21.1760000  
H 18.7110000   17.0370000   25.3250000  
H 14.8940000   19.8600000   26.7530000  
H 13.9610000   21.1940000   24.0240000  
C 16.9480000   18.6480000   26.7100000  
C 17.3000000   19.8210000   27.3710000  
C 17.7910000   19.8650000   28.6600000  
C 18.0230000   18.6510000   29.3120000  
C 17.4940000   17.4910000   28.7600000  
C 16.8900000   17.4350000   27.4950000  
C 17.4410000   21.1800000   26.9590000  
C 18.0280000   21.8710000   27.9920000  
N 18.2960000   21.0350000   29.0140000  
O 18.0720000   23.9660000   26.8780000  
C 18.3180000   23.3220000   28.0290000  
O 18.7750000   23.9070000   28.9840000  
O 17.4100000   16.3740000   29.5000000  
O 16.2150000   16.2970000   27.0640000  
H 17.0500000   21.5400000   26.0530000  
H 17.7000000   23.2810000   26.3370000  
H 18.8870000   21.2320000   29.7800000  
H 17.0940000   16.6710000   30.3370000  
H 16.5390000   15.5000000   27.5420000  
H 18.3510000   18.4210000   30.3480000  
