78
001 
C 22.4840000   15.8980000   22.1680000  
C 22.5620000   14.7210000   21.4440000  
C 21.3730000   14.1540000   20.9220000  
C 20.1460000   14.7180000   21.2020000  
C 19.9640000   15.9860000   21.8000000  
C 21.1790000   16.5850000   22.2650000  
C 21.0620000   12.9320000   20.2470000  
C 19.6630000   12.8620000   20.0730000  
N 19.0870000   14.0070000   20.7170000  
O 19.5820000   10.8700000   18.8060000  
C 18.8530000   11.8290000   19.3980000  
O 17.6920000   11.7910000   19.2000000  
O 21.1650000   17.7320000   23.0080000  
O 23.6270000   16.3860000   22.8210000  
H 23.5200000   14.2510000   21.3660000  
H 21.7510000   12.1050000   19.9400000  
H 20.5000000   10.9450000   19.0350000  
H 18.0920000   14.2990000   20.6120000  
H 20.2760000   18.0330000   23.0430000  
H 23.4230000   17.2150000   23.2420000  
C 18.6960000   16.7740000   21.8620000  
C 17.5080000   16.3910000   22.5270000  
C 16.3770000   17.1490000   22.3560000  
C 16.2700000   18.3410000   21.5280000  
C 17.4660000   18.7080000   20.8110000  
C 18.5590000   17.8340000   20.9130000  
C 17.1890000   15.3670000   23.4790000  
C 15.8110000   15.5270000   23.8120000  
N 15.3210000   16.6210000   23.1060000  
O 15.7680000   13.7430000   25.4200000  
C 14.9930000   14.6680000   24.7530000  
O 13.7970000   14.8080000   24.9850000  
O 17.4560000   19.9290000   20.1610000  
O 19.6700000   18.1330000   20.2160000  
H 17.8930000   14.7040000   23.9860000  
H 16.6960000   13.8980000   25.1130000  
H 14.3410000   16.8360000   23.0610000  
H 18.3200000   19.9130000   19.7780000  
H 20.4910000   17.7880000   20.6470000  
C 15.0200000   19.1260000   21.4120000  
C 14.5810000   19.8940000   22.5110000  
C 13.5330000   20.7030000   22.3660000  
C 12.6490000   20.6970000   21.2650000  
C 13.1390000   20.1160000   20.0880000  
C 14.3410000   19.3370000   20.1650000  
C 15.1300000   20.0590000   23.8220000  
C 14.1760000   20.8300000   24.5020000  
N 13.2530000   21.2980000   23.5740000  
O 15.2290000   20.6020000   26.6240000  
C 14.1440000   21.0690000   25.9710000  
O 13.2250000   21.5760000   26.5780000  
O 12.5250000   20.3080000   18.8410000  
O 14.8350000   18.6740000   19.0800000  
H 15.9190000   19.4170000   24.2440000  
H 15.7170000   19.9900000   25.9850000  
H 12.5500000   21.9510000   23.7890000  
H 11.6840000   20.8520000   18.8550000  
H 14.2030000   18.8450000   18.3460000  
C 11.5210000   21.7060000   21.2080000  
C 11.7120000   23.0630000   20.7390000  
C 10.6360000   23.9060000   20.6290000  
C  9.4240000   23.5890000   21.1700000  
C  9.2060000   22.2670000   21.6550000  
C 10.2190000   21.2720000   21.5750000  
C 12.8740000   23.7980000   20.3540000  
C 12.5040000   25.0600000   19.9720000  
N 11.1180000   25.1660000   20.2690000  
O 14.6240000   25.8810000   19.3590000  
C 13.3080000   26.1980000   19.5250000  
O 12.8850000   27.3560000   19.3580000  
O  7.9470000   21.9500000   22.1750000  
O 10.0090000   19.9670000   22.0200000  
H 13.8370000   23.3980000   20.3350000  
H 14.7350000   24.9490000   19.2580000  
H 10.5250000   25.9780000   20.1110000  
H  7.9750000   21.0060000   22.3180000  
H 10.7330000   19.3710000   21.8430000  
H  8.5570000   24.2020000   21.1150000  
