78
001 
C 19.6130000   12.7590000   23.8320000  
C 19.9190000   12.9350000   25.1870000  
C 19.4650000   14.0570000   25.8320000  
C 18.6970000   15.0200000   25.1710000  
C 18.3310000   14.9150000   23.8280000  
C 18.8110000   13.7470000   23.1600000  
C 19.6150000   14.5450000   27.1860000  
C 18.9320000   15.7730000   27.2320000  
N 18.4070000   16.0440000   25.9820000  
O 19.1960000   16.2450000   29.5150000  
C 18.9730000   16.8030000   28.2510000  
O 18.9480000   18.0100000   28.0330000  
O 18.5710000   13.5950000   21.8300000  
O 19.9070000   11.5210000   23.2410000  
H 20.3430000   12.1180000   25.8030000  
H 20.1710000   14.2320000   28.0490000  
H 19.2160000   15.2890000   29.3510000  
H 17.9910000   16.8880000   25.7020000  
H 18.3170000   14.4580000   21.4890000  
H 19.4820000   11.4810000   22.3460000  
C 17.6060000   15.9840000   23.1220000  
C 18.1610000   16.6010000   21.9510000  
C 17.4860000   17.6520000   21.4260000  
C 16.2230000   18.1000000   21.7190000  
C 15.6290000   17.4350000   22.7970000  
C 16.3550000   16.5170000   23.6080000  
C 19.4740000   16.5490000   21.3540000  
C 19.5060000   17.5790000   20.4050000  
N 18.2320000   18.2160000   20.4120000  
O 21.6810000   16.8460000   19.5540000  
C 20.6270000   17.7390000   19.4370000  
O 20.6980000   18.6340000   18.6280000  
O 14.4150000   17.8320000   23.2090000  
O 15.8020000   15.9570000   24.7190000  
H 20.3090000   15.8550000   21.4950000  
H 21.5400000   16.3790000   20.3700000  
H 18.0850000   19.1170000   19.9950000  
H 14.2980000   17.6950000   24.2200000  
H 16.0100000   15.0940000   24.6310000  
C 15.4760000   19.1770000   20.9710000  
C 14.3280000   18.9330000   20.2160000  
C 13.6980000   19.8870000   19.4990000  
C 13.9870000   21.2440000   19.6150000  
C 15.1930000   21.6050000   20.3570000  
C 15.9990000   20.5250000   20.9030000  
C 13.5520000   17.7070000   20.0000000  
C 12.3540000   17.9970000   19.3030000  
N 12.4610000   19.4290000   19.0710000  
O 11.5100000   15.8390000   18.9180000  
C 11.2600000   17.1030000   18.8690000  
O 10.2430000   17.5320000   18.3270000  
O 15.5020000   22.8810000   20.5280000  
O 17.1610000   20.9480000   21.4950000  
H 13.8930000   16.6170000   20.1780000  
H 12.3510000   15.6990000   19.4600000  
H 11.7330000   20.0100000   18.6500000  
H 14.7300000   23.3250000   20.1270000  
H 17.1050000   21.9260000   21.5380000  
C 13.0250000   22.2900000   19.0380000  
C 12.2910000   23.1410000   19.9120000  
C 11.3870000   24.0410000   19.5100000  
C 11.0740000   24.2080000   18.1210000  
C 11.8400000   23.4480000   17.2300000  
C 12.7880000   22.4710000   17.6430000  
C 12.2670000   23.2200000   21.3570000  
C 11.4300000   24.2700000   21.7260000  
N 10.8290000   24.7070000   20.5940000  
O 11.7480000   24.0140000   24.0670000  
C 11.1000000   24.6530000   23.0550000  
O 10.2660000   25.5330000   23.3130000  
O 11.5250000   23.5310000   15.9330000  
O 13.4640000   21.7220000   16.7410000  
H 12.9590000   22.6830000   21.9710000  
H 12.4720000   23.4160000   23.7600000  
H 10.0910000   25.3910000   20.4870000  
H 12.1970000   23.0740000   15.3750000  
H 14.0590000   21.1240000   17.2290000  
H 10.3080000   24.9240000   17.8620000  
