78
001 
C 21.0700000   15.3120000   18.1320000  
C 20.9150000   13.8920000   18.2260000  
C 19.7980000   13.4400000   18.9150000  
C 18.9390000   14.3080000   19.4330000  
C 19.0780000   15.7200000   19.4490000  
C 20.2700000   16.2360000   18.8050000  
C 19.2110000   12.1360000   19.0410000  
C 18.0090000   12.3320000   19.7590000  
N 17.8280000   13.7300000   20.0280000  
O 17.3980000   10.0050000   19.9040000  
C 17.1320000   11.2850000   20.3000000  
O 16.1010000   11.4960000   20.9180000  
O 20.4510000   17.5750000   18.7060000  
O 22.1050000   15.8590000   17.4460000  
H 21.5730000   13.1870000   17.6750000  
H 19.6240000   11.1650000   18.7250000  
H 18.1170000   10.1220000   19.2580000  
H 17.0650000   14.1070000   20.5550000  
H 19.8600000   17.9860000   19.3670000  
H 22.0450000   16.8030000   17.5190000  
C 18.1000000   16.5880000   20.1470000  
C 18.4450000   17.1790000   21.3730000  
C 17.5330000   17.8830000   22.0470000  
C 16.2850000   18.2640000   21.5760000  
C 15.9000000   17.7440000   20.3030000  
C 16.8110000   16.9330000   19.5820000  
C 19.6500000   17.2030000   22.1980000  
C 19.3820000   17.8840000   23.3720000  
N 18.0560000   18.3000000   23.2240000  
O 21.4200000   17.3530000   24.4660000  
C 20.2990000   18.1100000   24.5200000  
O 20.1020000   18.8210000   25.4770000  
O 14.7180000   17.9730000   19.7780000  
O 16.3500000   16.2250000   18.4660000  
H 20.5830000   16.7240000   21.9820000  
H 21.4210000   16.6520000   23.7470000  
H 17.5990000   18.8280000   23.9160000  
H 14.1530000   18.3920000   20.4250000  
H 16.7800000   15.3530000   18.3820000  
C 15.3950000   19.1530000   22.3620000  
C 14.9700000   20.3630000   21.7570000  
C 14.1220000   21.2150000   22.3170000  
C 13.6660000   21.0990000   23.6320000  
C 14.0450000   19.9050000   24.2770000  
C 14.9690000   18.9780000   23.6660000  
C 15.2830000   20.9800000   20.4620000  
C 14.5200000   22.1450000   20.3710000  
N 13.9000000   22.3740000   21.5680000  
O 15.2830000   22.6040000   18.1160000  
C 14.5540000   23.0400000   19.1710000  
O 14.0090000   24.1010000   19.1510000  
O 13.4890000   19.5520000   25.4450000  
O 15.3290000   17.8900000   24.4820000  
H 15.8370000   20.6010000   19.6190000  
H 15.5680000   21.7280000   18.3860000  
H 13.2780000   23.1670000   21.8080000  
H 12.8840000   20.2780000   25.5790000  
H 14.6610000   17.8470000   25.1870000  
C 12.7810000   22.0900000   24.2470000  
C 11.5810000   22.3910000   23.6160000  
C 10.6070000   23.0390000   24.3400000  
C 10.8330000   23.5560000   25.5820000  
C 12.0610000   23.2590000   26.2610000  
C 13.0030000   22.4880000   25.5870000  
C 10.9670000   21.9090000   22.3750000  
C  9.6380000   22.3760000   22.4040000  
N  9.4360000   23.0980000   23.5820000  
O  8.9630000   21.4550000   20.2780000  
C  8.6240000   22.3170000   21.2640000  
O  7.5660000   22.8770000   21.2570000  
O 12.2390000   23.7230000   27.5410000  
O 14.1810000   22.2170000   26.2020000  
H 11.3200000   21.3900000   21.4500000  
H  9.8650000   21.1410000   20.4610000  
H  8.6130000   23.5590000   23.8370000  
H 13.2000000   23.6640000   27.7650000  
H 14.7130000   21.7320000   25.6140000  
H 10.0640000   24.0950000   26.1210000  
