78
001 
C 20.5060000   14.1940000   18.2230000  
C 20.1370000   14.0830000   16.8550000  
C 18.9410000   14.6710000   16.4030000  
C 18.2680000   15.5800000   17.2020000  
C 18.6540000   15.8640000   18.5240000  
C 19.8000000   15.1650000   19.0060000  
C 18.4390000   14.8860000   15.0680000  
C 17.5470000   15.9530000   15.1610000  
N 17.3590000   16.2840000   16.5330000  
O 17.2490000   16.3000000   12.7810000  
C 16.9530000   16.7580000   14.0360000  
O 16.1850000   17.6630000   14.1680000  
O 20.2130000   15.3350000   20.2910000  
O 21.6250000   13.5270000   18.6720000  
H 20.7260000   13.4730000   16.1330000  
H 18.9400000   14.5640000   14.1480000  
H 17.9340000   15.6590000   12.8740000  
H 16.5860000   16.8110000   16.9190000  
H 19.6260000   16.1020000   20.6160000  
H 21.7470000   13.5990000   19.6170000  
C 17.8200000   16.8180000   19.3330000  
C 16.5680000   16.3550000   19.8590000  
C 15.8540000   17.1370000   20.7200000  
C 16.1860000   18.4410000   21.0930000  
C 17.2830000   18.9760000   20.3480000  
C 18.1860000   18.2000000   19.5980000  
C 15.8090000   15.1290000   19.6090000  
C 14.7280000   15.2300000   20.4770000  
N 14.7560000   16.4510000   21.1310000  
O 13.7030000   13.2400000   19.8460000  
C 13.6080000   14.3060000   20.6830000  
O 12.6640000   14.4210000   21.4460000  
O 17.5620000   20.2670000   20.6300000  
O 19.2720000   18.8450000   19.0860000  
H 16.0560000   14.4210000   18.8260000  
H 14.4960000   13.5090000   19.3530000  
H 14.0610000   16.7940000   21.7720000  
H 16.8370000   20.5080000   21.1380000  
H 19.2120000   19.7840000   19.4410000  
C 15.3030000   19.2740000   22.0250000  
C 15.3680000   19.2500000   23.4620000  
C 14.5120000   19.9350000   24.2210000  
C 13.4900000   20.8160000   23.7910000  
C 13.3450000   20.9530000   22.3830000  
C 14.2250000   20.1530000   21.5360000  
C 16.2760000   18.5690000   24.3850000  
C 15.8860000   18.8050000   25.6580000  
N 14.8200000   19.6960000   25.5430000  
O 17.6290000   17.7650000   26.7850000  
C 16.5510000   18.5120000   26.8780000  
O 16.1590000   18.8450000   27.9520000  
O 12.5140000   21.9400000   21.7600000  
O 14.1050000   20.3660000   20.2060000  
H 17.0700000   17.9080000   23.9990000  
H 17.6510000   17.5670000   25.8470000  
H 14.4830000   20.1780000   26.3430000  
H 12.2620000   22.5750000   22.4960000  
H 13.5570000   21.1530000   20.1580000  
C 12.6510000   21.5470000   24.7740000  
C 13.1530000   22.7250000   25.3760000  
C 12.4020000   23.4400000   26.2600000  
C 11.0960000   23.0750000   26.6310000  
C 10.5800000   21.9520000   25.9940000  
C 11.2630000   21.1850000   25.0670000  
C 14.5070000   23.2650000   25.4350000  
C 14.4940000   24.3660000   26.2750000  
N 13.1700000   24.4620000   26.7570000  
O 16.7870000   24.8480000   26.1160000  
C 15.5540000   25.2860000   26.5290000  
O 15.5170000   26.3780000   27.0760000  
O  9.2860000   21.6520000   26.3560000  
O 10.5720000   20.0280000   24.6120000  
H 15.3830000   22.8700000   24.9140000  
H 16.4980000   23.9670000   25.7640000  
H 12.8180000   25.1410000   27.4540000  
H  8.9080000   22.3440000   26.9680000  
H  9.7070000   20.0840000   24.9550000  
H 10.5090000   23.6110000   27.3480000  
