78
001 
C 20.4780000   15.5750000   17.2120000  
C 20.3580000   14.1800000   17.1160000  
C 19.2190000   13.5750000   17.7290000  
C 18.3350000   14.2970000   18.4640000  
C 18.5180000   15.7280000   18.5910000  
C 19.5680000   16.3580000   17.9790000  
C 18.7930000   12.2060000   17.7310000  
C 17.6210000   12.1770000   18.4660000  
N 17.3220000   13.4910000   18.9520000  
O 17.4120000    9.7630000   18.3280000  
C 16.8750000   10.9750000   18.7420000  
O 15.9560000   10.9890000   19.5370000  
O 19.6430000   17.7070000   17.9930000  
O 21.6280000   16.1030000   16.7210000  
H 21.1180000   13.6830000   16.6050000  
H 19.3250000   11.3560000   17.2290000  
H 18.2110000    9.8700000   17.7330000  
H 16.4020000   13.8180000   19.3070000  
H 19.5930000   17.9100000   18.9430000  
H 21.6230000   17.0620000   16.8440000  
C 17.5990000   16.5980000   19.4690000  
C 18.0880000   17.2090000   20.6540000  
C 17.3430000   17.9930000   21.4920000  
C 16.0550000   18.4390000   21.2450000  
C 15.4940000   17.7740000   20.1140000  
C 16.2430000   16.8080000   19.2950000  
C 19.4430000   17.0750000   21.2050000  
C 19.4140000   17.7900000   22.4260000  
N 18.1200000   18.4190000   22.5790000  
O 21.7340000   17.3350000   22.9890000  
C 20.5730000   17.9070000   23.3670000  
O 20.4880000   18.5440000   24.4160000  
O 14.1660000   18.0470000   19.8650000  
O 15.5780000   16.2070000   18.2490000  
H 20.2780000   16.6300000   20.6760000  
H 21.4590000   16.8920000   22.1370000  
H 17.8790000   19.0460000   23.3470000  
H 13.7540000   18.4700000   20.5950000  
H 16.1650000   16.2150000   17.4450000  
C 15.2770000   19.3000000   22.1480000  
C 14.9710000   20.6640000   21.8040000  
C 14.2850000   21.3980000   22.7130000  
C 13.9000000   20.9490000   23.9730000  
C 14.2090000   19.6130000   24.3310000  
C 14.7630000   18.7760000   23.3730000  
C 15.2740000   21.5550000   20.7540000  
C 14.7550000   22.8470000   21.0920000  
N 14.0980000   22.7150000   22.3130000  
O 15.4350000   23.8790000   19.0240000  
C 14.8640000   24.0960000   20.2430000  
O 14.4480000   25.1740000   20.5660000  
O 13.8210000   19.1460000   25.5780000  
O 15.0130000   17.4690000   23.7000000  
H 15.8910000   21.3560000   19.8790000  
H 15.3890000   22.9130000   19.0260000  
H 13.7210000   23.4680000   22.7570000  
H 13.2450000   19.8300000   25.9690000  
H 14.7950000   17.3470000   24.6170000  
C 13.2480000   21.8710000   24.9600000  
C 11.8870000   21.9900000   24.9750000  
C 11.2300000   22.8340000   25.7460000  
C 11.9260000   23.7550000   26.5200000  
C 13.3530000   23.7940000   26.4760000  
C 13.9760000   22.8400000   25.6510000  
C 10.9340000   21.1770000   24.3240000  
C  9.6770000   21.7200000   24.6890000  
N  9.8890000   22.7490000   25.6000000  
O  8.3750000   20.2850000   23.3000000  
C  8.3970000   21.2290000   24.2260000  
O  7.3990000   21.5090000   24.8470000  
O 14.0970000   24.5940000   27.2370000  
O 15.3500000   22.7070000   25.6960000  
H 11.2090000   20.5150000   23.4710000  
H  9.2180000   20.3350000   22.8760000  
H  9.1930000   23.2660000   26.1060000  
H 14.9870000   24.1480000   27.2960000  
H 15.6150000   22.0470000   25.0960000  
H 11.4090000   24.4860000   27.1570000  
