78
001 
C 15.8250000   13.9390000   16.1420000  
C 16.9690000   14.0680000   15.3280000  
C 17.7880000   15.1450000   15.5780000  
C 17.5900000   15.8920000   16.6830000  
C 16.4920000   15.8240000   17.5530000  
C 15.4600000   14.9030000   17.1940000  
C 19.0240000   15.5110000   14.9170000  
C 19.4400000   16.5610000   15.6380000  
N 18.5400000   16.8230000   16.6980000  
O 21.4420000   16.9870000   14.4680000  
C 20.6570000   17.4140000   15.4770000  
O 20.9430000   18.3110000   16.2200000  
O 14.3820000   14.7000000   17.9010000  
O 15.0590000   12.7900000   15.9920000  
H 17.1480000   13.4300000   14.4970000  
H 19.5710000   15.0150000   14.1450000  
H 20.9550000   16.3570000   14.0070000  
H 18.6500000   17.5910000   17.3380000  
H 14.4190000   15.3590000   18.5990000  
H 14.4410000   12.6550000   16.7610000  
C 16.3460000   16.8070000   18.6350000  
C 15.1960000   17.6010000   18.7670000  
C 15.0090000   18.3600000   19.8810000  
C 15.9080000   18.4830000   20.9530000  
C 17.1570000   17.8190000   20.7700000  
C 17.3570000   16.9760000   19.6310000  
C 14.0290000   17.7570000   17.9410000  
C 13.1940000   18.7250000   18.5900000  
N 13.8130000   19.0540000   19.7670000  
O 11.3260000   18.5200000   17.1120000  
C 11.8680000   19.2290000   18.1630000  
O 11.2220000   20.0790000   18.6800000  
O 18.2350000   17.9570000   21.6290000  
O 18.5200000   16.2490000   19.5980000  
H 13.9450000   17.2840000   16.9430000  
H 11.9950000   17.9430000   16.9090000  
H 13.4650000   19.5850000   20.5460000  
H 18.8820000   17.2500000   21.2900000  
H 18.5700000   15.7980000   18.6330000  
C 15.6790000   19.3620000   22.1350000  
C 15.4790000   18.8000000   23.3860000  
C 15.0540000   19.6220000   24.4080000  
C 14.7620000   20.9720000   24.3040000  
C 15.1510000   21.5460000   23.0630000  
C 15.5250000   20.7590000   21.9700000  
C 15.4410000   17.4810000   23.9410000  
C 14.9660000   17.5200000   25.2760000  
N 14.7760000   18.9060000   25.5710000  
O 15.2570000   15.1670000   25.7700000  
C 14.8320000   16.4120000   26.2410000  
O 14.2680000   16.4940000   27.3320000  
O 15.0640000   22.9530000   22.8270000  
O 15.7750000   21.2860000   20.7380000  
H 15.6710000   16.6480000   23.3240000  
H 15.3680000   15.2860000   24.8340000  
H 14.3470000   19.2800000   26.4320000  
H 15.2410000   23.4840000   23.5920000  
H 15.6540000   22.2610000   20.7070000  
C 14.2290000   21.8650000   25.3820000  
C 14.7350000   21.6230000   26.7500000  
C 14.2280000   22.3890000   27.8460000  
C 13.1700000   23.3020000   27.6920000  
C 12.6100000   23.4740000   26.4090000  
C 13.1490000   22.7780000   25.2320000  
C 16.0140000   21.0040000   27.2070000  
C 16.1800000   21.4190000   28.5930000  
N 15.1370000   22.2870000   28.8840000  
O 17.9320000   19.9720000   29.2930000  
C 17.2380000   21.0880000   29.6340000  
O 17.3550000   21.7040000   30.6950000  
O 11.4950000   24.3170000   26.2520000  
O 12.5630000   22.8770000   24.0120000  
H 16.5710000   20.1860000   26.7360000  
H 17.5890000   19.6700000   28.4960000  
H 15.0340000   22.6570000   29.8190000  
H 11.2570000   24.3090000   25.2800000  
H 12.8720000   22.1810000   23.4320000  
H 12.7740000   23.9370000   28.4430000  
