78
001 
C 11.0780000   23.9390000   25.1090000  
C 10.6540000   23.2710000   26.2880000  
C 11.0370000   21.9090000   26.3460000  
C 11.8620000   21.3470000   25.4280000  
C 12.4370000   22.0080000   24.3520000  
C 11.9520000   23.3170000   24.1590000  
C 10.6660000   20.9040000   27.2620000  
C 11.3050000   19.7110000   26.9270000  
N 12.0830000   19.9840000   25.7550000  
O 10.6240000   18.4260000   28.7830000  
C 11.1800000   18.3910000   27.5710000  
O 11.5480000   17.3030000   27.1500000  
O 12.2440000   23.9610000   23.0040000  
O 10.6130000   25.1900000   24.8890000  
H 10.0630000   23.7500000   27.0470000  
H  9.9430000   20.9960000   28.1200000  
H 10.4110000   19.4050000   28.7640000  
H 12.7070000   19.4040000   25.2990000  
H 13.1910000   23.9910000   23.1590000  
H 11.2890000   25.4670000   24.2020000  
C 13.3420000   21.3300000   23.4330000  
C 12.9470000   20.3550000   22.4890000  
C 13.8540000   19.7220000   21.6880000  
C 15.2860000   19.8000000   21.8670000  
C 15.6950000   20.6090000   22.9400000  
C 14.7480000   21.4040000   23.6200000  
C 11.6890000   19.8300000   22.2180000  
C 11.8730000   18.8480000   21.2650000  
N 13.2660000   18.8020000   20.9210000  
O  9.5520000   18.1450000   21.0710000  
C 10.8530000   18.0120000   20.5920000  
O 11.1300000   17.1430000   19.7250000  
O 17.0440000   20.7350000   23.3380000  
O 15.2360000   22.0430000   24.6790000  
H 10.6810000   20.0650000   22.6740000  
H  9.6270000   18.7860000   21.8040000  
H 13.7260000   18.1760000   20.2400000  
H 17.6340000   20.1420000   22.8910000  
H 16.1480000   22.1870000   24.5050000  
C 16.2770000   18.8260000   21.2350000  
C 16.7470000   19.1040000   19.9400000  
C 17.5880000   18.2390000   19.2430000  
C 18.1350000   17.0480000   19.8100000  
C 17.6720000   16.7720000   21.1730000  
C 16.7880000   17.6850000   21.8810000  
C 16.5820000   20.2280000   19.0600000  
C 17.3400000   20.0070000   17.9010000  
N 17.9230000   18.7660000   17.9810000  
O 16.7660000   22.0950000   16.8650000  
C 17.3890000   20.9120000   16.7620000  
O 17.9280000   20.5960000   15.7130000  
O 17.9990000   15.6390000   21.8800000  
O 16.3630000   17.4000000   23.1300000  
H 15.9940000   21.1520000   19.3150000  
H 16.4850000   22.0720000   17.7950000  
H 18.5990000   18.4100000   17.3660000  
H 18.4590000   15.0710000   21.2310000  
H 16.1950000   16.4220000   23.0860000  
C 18.9930000   16.1000000   19.0230000  
C 20.2610000   15.6900000   19.5490000  
C 21.0400000   14.8390000   18.8250000  
C 20.7110000   14.3220000   17.5860000  
C 19.4650000   14.6730000   17.0770000  
C 18.5700000   15.5400000   17.8060000  
C 20.8870000   15.9960000   20.7660000  
C 22.0420000   15.2080000   20.8010000  
N 22.1200000   14.4960000   19.6230000  
O 22.5840000   15.6440000   23.0910000  
C 22.8740000   14.9440000   21.9860000  
O 23.6900000   14.0360000   22.0330000  
O 18.9480000   13.9650000   16.0180000  
O 17.2810000   15.7670000   17.3270000  
H 20.4150000   16.4510000   21.5910000  
H 21.8680000   16.2030000   22.7370000  
H 22.7450000   13.6610000   19.5720000  
H 19.6130000   13.3290000   15.6720000  
H 17.1210000   15.0740000   16.6650000  
H 21.4840000   13.6860000   17.0210000  
