78
001 
C 17.5120000   19.0390000   29.1500000  
C 17.7470000   17.7160000   29.5650000  
C 17.3340000   16.6750000   28.6590000  
C 16.8410000   16.9760000   27.4490000  
C 16.6090000   18.2790000   26.9410000  
C 16.9500000   19.2850000   27.8630000  
C 17.5960000   15.2730000   28.6380000  
C 17.2430000   14.8260000   27.3620000  
N 16.7200000   15.8840000   26.6530000  
O 18.0810000   12.7150000   27.6860000  
C 17.5700000   13.5490000   26.7400000  
O 17.4710000   13.3290000   25.4920000  
O 16.9060000   20.6230000   27.3930000  
O 17.8630000   20.1230000   29.9010000  
H 18.1800000   17.4620000   30.5330000  
H 18.2830000   14.7540000   29.3340000  
H 17.8280000   13.0880000   28.5700000  
H 16.5390000   15.8620000   25.6460000  
H 16.3830000   20.6350000   26.5840000  
H 17.9820000   20.7950000   29.1770000  
C 16.3440000   18.5050000   25.4570000  
C 15.2620000   19.2320000   25.0790000  
C 15.0410000   19.4140000   23.7110000  
C 15.7700000   18.8970000   22.6160000  
C 16.9810000   18.2080000   23.0450000  
C 17.2260000   18.0290000   24.4560000  
C 14.0390000   19.7350000   25.7620000  
C 13.1900000   20.2050000   24.7200000  
N 13.8340000   20.0760000   23.4510000  
O 11.7040000   20.8780000   26.3500000  
C 11.8530000   20.7510000   25.0490000  
O 11.0660000   21.1030000   24.2260000  
O 17.9090000   17.8170000   22.1570000  
O 18.3440000   17.3550000   24.8110000  
H 13.8720000   19.5850000   26.7870000  
H 12.4410000   20.3470000   26.6910000  
H 13.4410000   20.3380000   22.5470000  
H 17.9730000   18.5170000   21.4420000  
H 19.0030000   17.4910000   24.1260000  
C 15.3640000   19.1100000   21.2080000  
C 16.0200000   19.8960000   20.2700000  
C 15.5890000   19.9540000   18.9690000  
C 14.4180000   19.3930000   18.4960000  
C 13.7890000   18.4570000   19.3600000  
C 14.2540000   18.3550000   20.7180000  
C 17.1970000   20.7430000   20.2760000  
C 17.2970000   21.3950000   19.0890000  
N 16.3270000   20.8270000   18.2250000  
O 18.4820000   23.2110000   19.9600000  
C 18.0630000   22.5740000   18.8720000  
O 18.3230000   22.9300000   17.7640000  
O 12.6680000   17.7890000   18.9040000  
O 13.6950000   17.3900000   21.5350000  
H 17.7060000   20.9910000   21.1720000  
H 17.9440000   22.9620000   20.7360000  
H 16.1240000   21.1100000   17.2380000  
H 12.6400000   17.7600000   17.9180000  
H 12.8390000   17.1730000   21.1000000  
C 13.9520000   19.5500000   17.0300000  
C 14.6920000   18.8800000   15.9980000  
C 14.1820000   18.8410000   14.7460000  
C 13.0220000   19.5110000   14.3940000  
C 12.3610000   20.2120000   15.3350000  
C 12.7500000   20.1980000   16.6920000  
C 15.9140000   18.1330000   15.9990000  
C 16.0970000   17.6840000   14.7000000  
N 15.0130000   18.1140000   13.9090000  
O 18.2710000   16.7500000   15.1990000  
C 17.2970000   16.9340000   14.2580000  
O 17.3980000   16.5540000   13.1420000  
O 11.3090000   20.9580000   14.8640000  
O 11.9980000   20.9000000   17.6450000  
H 16.4950000   17.8500000   16.8800000  
H 18.0150000   17.3990000   15.8590000  
H 14.8490000   17.8660000   12.9140000  
H 11.4260000   21.0330000   13.8890000  
H 11.1490000   21.1560000   17.2220000  
H 12.6850000   19.5440000   13.3370000  
