78
001 
C 14.3310000   18.7450000   29.1540000  
C 12.9590000   19.0700000   29.3990000  
C 12.2270000   19.3700000   28.2190000  
C 12.7260000   19.2860000   26.9300000  
C 14.0440000   18.9190000   26.6740000  
C 14.8610000   18.7040000   27.8260000  
C 10.8660000   19.7710000   28.1010000  
C 10.6260000   19.9530000   26.7260000  
N 11.8140000   19.6170000   26.0070000  
O  8.4080000   20.8040000   27.0500000  
C  9.3730000   20.5370000   26.1440000  
O  9.2170000   20.7400000   24.9160000  
O 16.1530000   18.3300000   27.6990000  
O 15.0890000   18.5040000   30.2690000  
H 12.4580000   19.1900000   30.3060000  
H 10.1250000   19.9840000   28.9020000  
H  8.8650000   20.7380000   27.9040000  
H 11.9830000   19.8500000   25.0100000  
H 16.3810000   18.6260000   26.7810000  
H 15.9290000   18.1810000   29.9230000  
C 14.7020000   18.8270000   25.3130000  
C 15.6950000   19.7130000   24.8620000  
C 16.1230000   19.6540000   23.5900000  
C 15.5410000   18.8310000   22.6060000  
C 14.5780000   17.8740000   23.0180000  
C 14.2110000   17.8520000   24.3760000  
C 16.5030000   20.7500000   25.5080000  
C 17.2660000   21.2910000   24.5240000  
N 17.0160000   20.6580000   23.3030000  
O 17.9790000   23.0620000   25.9350000  
C 18.1440000   22.4630000   24.7120000  
O 18.8520000   22.9860000   23.8530000  
O 13.9890000   16.9980000   22.2090000  
O 13.3090000   16.8850000   24.8240000  
H 16.4230000   21.0610000   26.5320000  
H 17.5850000   22.3140000   26.5350000  
H 17.2700000   20.9900000   22.4000000  
H 13.2050000   16.6520000   22.6160000  
H 13.2880000   17.0290000   25.7400000  
C 15.9850000   18.9510000   21.1710000  
C 16.4640000   17.7760000   20.5140000  
C 17.0150000   17.8680000   19.2240000  
C 17.1480000   19.0560000   18.5050000  
C 16.5210000   20.2220000   19.1070000  
C 16.0260000   20.1820000   20.4280000  
C 16.5820000   16.3050000   20.8350000  
C 17.2690000   15.6930000   19.7650000  
N 17.4700000   16.6740000   18.7420000  
O 17.5550000   13.6830000   21.0310000  
C 17.8660000   14.3140000   19.8550000  
O 18.4470000   13.7530000   18.9530000  
O 16.4180000   21.4320000   18.3780000  
O 15.4160000   21.2690000   20.9590000  
H 16.2840000   15.9390000   21.7670000  
H 17.1060000   14.3140000   21.5420000  
H 17.5250000   16.4110000   17.7560000  
H 16.5950000   21.1990000   17.4410000  
H 15.2970000   21.9300000   20.2370000  
C 17.8040000   18.9850000   17.1710000  
C 17.2740000   18.2950000   16.0750000  
C 17.8820000   18.1020000   14.8600000  
C 19.1100000   18.6660000   14.6200000  
C 19.8120000   19.2890000   15.7260000  
C 19.1280000   19.5270000   16.9520000  
C 16.0380000   17.6180000   15.9410000  
C 15.9390000   16.9440000   14.7410000  
N 17.0410000   17.3710000   14.0100000  
O 13.9300000   15.8080000   15.2280000  
C 14.7650000   16.1500000   14.1940000  
O 14.6300000   15.7590000   13.0840000  
O 21.0190000   19.8390000   15.4530000  
O 19.8300000   20.1660000   17.9340000  
H 15.2680000   17.7250000   16.6410000  
H 14.0190000   16.4390000   16.0100000  
H 17.3240000   17.0850000   13.1530000  
H 21.3960000   20.1820000   16.2330000  
H 19.1850000   20.1750000   18.7210000  
H 19.5620000   18.6270000   13.6470000  
