78
001 
C 19.7680000   14.5590000   26.5210000  
C 20.9450000   14.1050000   25.8150000  
C 21.0490000   14.4310000   24.4820000  
C 20.1400000   15.2500000   23.9280000  
C 19.0700000   15.8850000   24.5720000  
C 18.8940000   15.4580000   25.9210000  
C 22.1550000   14.2540000   23.5950000  
C 21.8410000   15.1010000   22.5650000  
N 20.6200000   15.7370000   22.7510000  
O 23.7920000   14.4520000   21.2440000  
C 22.6680000   15.2680000   21.3100000  
O 22.3730000   16.0230000   20.4320000  
O 17.8130000   15.8330000   26.6660000  
O 19.7120000   14.3120000   27.8850000  
H 21.6390000   13.5300000   26.3320000  
H 22.9430000   13.5500000   23.7320000  
H 23.8350000   14.0510000   22.1230000  
H 20.1760000   16.3700000   22.1100000  
H 17.4530000   16.6280000   26.1200000  
H 18.9170000   14.7230000   28.2080000  
C 18.1460000   16.8850000   23.9110000  
C 17.2740000   16.4820000   22.8890000  
C 16.3580000   17.2910000   22.4370000  
C 16.2410000   18.6420000   22.7530000  
C 17.2210000   19.1170000   23.6680000  
C 18.1780000   18.2570000   24.1740000  
C 16.9430000   15.1960000   22.3060000  
C 15.7830000   15.3460000   21.6670000  
N 15.3740000   16.6440000   21.8100000  
O 15.6740000   13.1430000   20.8110000  
C 15.0320000   14.2890000   20.9120000  
O 13.9470000   14.5220000   20.3760000  
O 17.1870000   20.4070000   24.0630000  
O 19.0610000   18.7570000   25.1000000  
H 17.6420000   14.3530000   22.3000000  
H 16.4250000   13.2320000   21.4270000  
H 14.4610000   17.0130000   21.4580000  
H 16.5060000   20.7120000   23.4370000  
H 18.9120000   19.6950000   25.2740000  
C 15.2540000   19.5710000   21.9960000  
C 13.8640000   19.4870000   22.1690000  
C 12.9940000   20.1440000   21.3330000  
C 13.3350000   20.9620000   20.2540000  
C 14.7550000   21.0650000   20.0950000  
C 15.6850000   20.4630000   20.9550000  
C 12.9900000   18.5920000   22.9110000  
C 11.6440000   18.8710000   22.4750000  
N 11.6650000   19.8870000   21.5170000  
O 10.5930000   17.2540000   23.9780000  
C 10.3940000   18.3330000   23.2040000  
O  9.2520000   18.7300000   23.0140000  
O 15.2670000   21.9210000   19.1450000  
O 17.0260000   20.5890000   20.7550000  
H 13.2280000   17.9550000   23.7640000  
H 11.5640000   17.1340000   23.8640000  
H 10.9080000   20.4610000   21.1750000  
H 14.4690000   22.4520000   18.8030000  
H 17.2350000   21.0610000   19.8900000  
C 12.3760000   21.6060000   19.2810000  
C 12.4430000   23.0020000   19.0230000  
C 11.4960000   23.5660000   18.1920000  
C 10.4210000   22.8140000   17.6270000  
C 10.4270000   21.4270000   17.7340000  
C 11.4240000   20.8120000   18.5570000  
C 13.3200000   24.0740000   19.5210000  
C 12.9660000   25.2110000   18.8590000  
N 11.8580000   24.8880000   18.0430000  
O 14.7730000   26.5270000   19.6210000  
C 13.5940000   26.5410000   18.9290000  
O 13.1330000   27.5320000   18.3920000  
O  9.5290000   20.6400000   17.0210000  
O 11.5000000   19.4610000   18.5080000  
H 14.0430000   23.9900000   20.2420000  
H 14.6280000   25.7250000   20.1350000  
H 11.3330000   25.5950000   17.5360000  
H  9.0930000   21.3230000   16.4460000  
H 11.0590000   19.1220000   17.7800000  
H  9.7000000   23.3130000   17.0180000  
