78
001 
C 18.2120000   17.9230000   28.7940000  
C 18.8650000   16.6880000   28.7280000  
C 19.2090000   16.2000000   27.5290000  
C 18.8230000   16.8200000   26.3760000  
C 18.0080000   17.9670000   26.3330000  
C 17.6740000   18.5790000   27.6020000  
C 19.7890000   14.9630000   27.1630000  
C 19.6030000   14.8450000   25.7940000  
N 19.0240000   16.0230000   25.3160000  
O 20.2640000   12.4950000   25.6600000  
C 19.8390000   13.6060000   24.9380000  
O 19.6160000   13.5260000   23.7070000  
O 16.9540000   19.7230000   27.7570000  
O 18.0090000   18.4600000   30.0230000  
H 18.9810000   16.2200000   29.7090000  
H 19.9700000   14.1250000   27.8420000  
H 20.4370000   12.8120000   26.6230000  
H 18.7990000   16.3280000   24.3150000  
H 16.8490000   20.1950000   26.8840000  
H 17.7020000   19.4190000   29.8600000  
C 17.5050000   18.3970000   25.0210000  
C 16.4320000   17.7340000   24.4070000  
C 15.9100000   18.0980000   23.2430000  
C 16.3950000   19.1180000   22.4650000  
C 17.4680000   19.8930000   23.0220000  
C 18.0200000   19.5410000   24.2760000  
C 15.7490000   16.5370000   24.8550000  
C 14.8900000   16.2310000   23.8090000  
N 15.0880000   17.1080000   22.7550000  
O 13.8040000   14.4620000   25.0220000  
C 13.9140000   15.1290000   23.8110000  
O 13.2310000   14.7570000   22.8830000  
O 18.0160000   20.9980000   22.4410000  
O 19.0620000   20.1820000   24.7710000  
H 15.8010000   16.0690000   25.7780000  
H 14.5190000   14.6870000   25.6080000  
H 14.8680000   17.0270000   21.7940000  
H 18.6500000   21.1500000   23.1380000  
H 19.3560000   19.5740000   25.4580000  
C 15.7930000   19.4080000   21.1440000  
C 14.4460000   19.7720000   21.0790000  
C 13.8460000   19.9530000   19.8720000  
C 14.4340000   19.7240000   18.6290000  
C 15.7680000   19.2750000   18.6610000  
C 16.4480000   19.1450000   19.9230000  
C 13.3850000   19.7940000   22.0580000  
C 12.1820000   20.0230000   21.3510000  
N 12.5030000   20.2270000   20.0030000  
O 10.8840000   19.7100000   23.2570000  
C 10.8550000   20.0950000   21.9920000  
O  9.7980000   20.4200000   21.4840000  
O 16.4050000   19.0330000   17.4670000  
O 17.7740000   18.7610000   19.9870000  
H 13.5120000   19.6960000   23.1610000  
H 11.6890000   19.2790000   23.3100000  
H 11.8060000   20.3280000   19.2660000  
H 15.7460000   18.8450000   16.8270000  
H 17.9330000   18.4070000   19.0880000  
C 13.7930000   19.9540000   17.3500000  
C 14.0780000   21.0640000   16.5160000  
C 13.4230000   21.3050000   15.3270000  
C 12.6390000   20.3220000   14.7680000  
C 12.2540000   19.2170000   15.5760000  
C 12.8510000   19.0410000   16.8440000  
C 14.9530000   22.1930000   16.6000000  
C 14.7240000   23.1030000   15.5730000  
N 13.8900000   22.4690000   14.6900000  
O 16.2960000   24.7230000   16.2340000  
C 15.5110000   24.3410000   15.2500000  
O 15.3860000   24.9680000   14.2070000  
O 11.3710000   18.3180000   15.1340000  
O 12.3190000   18.1280000   17.6860000  
H 15.6490000   22.3520000   17.3950000  
H 16.0390000   24.1760000   17.0110000  
H 13.3890000   22.9410000   13.8920000  
H 11.4270000   17.6540000   15.8960000  
H 12.9410000   18.0850000   18.4570000  
H 12.0890000   20.5500000   13.8520000  
