78
001 
C  9.4510000   22.4450000   23.9380000  
C  8.4250000   21.8180000   23.1290000  
C  8.7960000   20.8360000   22.1810000  
C 10.0840000   20.4910000   22.0790000  
C 11.0960000   20.9480000   22.9500000  
C 10.7270000   21.9160000   23.8970000  
C  8.0240000   20.2180000   21.1320000  
C  8.9350000   19.4360000   20.4040000  
N 10.2240000   19.5980000   21.0210000  
O  7.5010000   18.3480000   18.8810000  
C  8.7790000   18.5740000   19.2250000  
O  9.6510000   18.1220000   18.5230000  
O 11.6170000   22.4150000   24.7560000  
O  9.1310000   23.4520000   24.8020000  
H  7.4000000   22.0740000   23.1620000  
H  6.9190000   20.3650000   20.9400000  
H  7.0070000   18.7460000   19.5580000  
H 11.0670000   19.2920000   20.6330000  
H 12.4420000   21.9400000   24.6910000  
H  9.9840000   23.5630000   25.2610000  
C 12.5480000   20.4690000   22.7510000  
C 13.5070000   21.3090000   22.1310000  
C 14.6960000   20.8020000   21.7600000  
C 15.0800000   19.4630000   21.8860000  
C 14.0110000   18.5740000   22.3340000  
C 12.7830000   19.0740000   22.7230000  
C 13.5820000   22.7290000   21.9130000  
C 14.9420000   22.9390000   21.5120000  
N 15.6090000   21.7280000   21.3750000  
O 14.9290000   25.2880000   21.2370000  
C 15.6900000   24.1920000   21.1030000  
O 16.7570000   24.2860000   20.6490000  
O 14.3410000   17.2940000   22.7570000  
O 11.8760000   18.1980000   23.2700000  
H 12.8300000   23.4750000   22.0700000  
H 14.1720000   25.0930000   21.7970000  
H 16.5740000   21.4540000   21.2150000  
H 13.4420000   16.9300000   22.9160000  
H 11.0320000   18.7970000   23.3150000  
C 16.4590000   18.8540000   21.6490000  
C 17.3450000   18.6590000   22.6670000  
C 18.4900000   17.8850000   22.4900000  
C 18.8420000   17.2920000   21.2470000  
C 17.9790000   17.5620000   20.1360000  
C 16.8040000   18.3540000   20.3940000  
C 17.3090000   18.9510000   24.1010000  
C 18.5130000   18.6020000   24.6260000  
N 19.2460000   17.9000000   23.6540000  
O 18.0850000   19.5560000   26.7480000  
C 18.9510000   18.7770000   26.0200000  
O 19.9830000   18.2750000   26.4410000  
O 18.2850000   17.1740000   18.8340000  
O 16.0260000   18.6350000   19.3050000  
H 16.5090000   19.5140000   24.6320000  
H 17.4150000   19.8490000   26.1450000  
H 19.9890000   17.2490000   23.8560000  
H 19.1040000   16.6150000   18.8220000  
H 16.4470000   18.0860000   18.6140000  
C 20.1790000   16.6200000   21.0080000  
C 20.3810000   15.2890000   20.6100000  
C 21.5910000   14.6950000   20.3780000  
C 22.7310000   15.5000000   20.2780000  
C 22.6000000   16.8320000   20.6250000  
C 21.3350000   17.3830000   21.0850000  
C 19.3280000   14.3380000   20.4530000  
C 19.9250000   13.1780000   20.0050000  
N 21.3400000   13.4050000   19.9670000  
O 17.9570000   11.9020000   19.7270000  
C 19.2460000   11.9600000   19.4690000  
O 19.8800000   11.1210000   18.8860000  
O 23.6980000   17.5990000   20.8040000  
O 21.3260000   18.7190000   21.3500000  
H 18.2590000   14.5130000   20.4850000  
H 17.9160000   12.6910000   20.2780000  
H 21.9910000   12.7120000   19.5520000  
H 23.5120000   18.6000000   20.8710000  
H 20.3910000   18.9090000   21.6350000  
H 23.6550000   15.0510000   19.8860000  
