78
010 
C 14.4400000   19.3160000   29.1790000  
C 15.1360000   18.3620000   29.9300000  
C 16.0820000   17.5210000   29.3070000  
C 16.1920000   17.5590000   27.9290000  
C 15.5160000   18.5070000   27.0960000  
C 14.5490000   19.3590000   27.7670000  
C 16.8470000   16.4160000   29.7220000  
C 17.4530000   15.8490000   28.5720000  
N 17.0460000   16.6060000   27.4380000  
O 18.5960000   14.0630000   29.8310000  
C 18.3110000   14.6350000   28.6140000  
O 18.7020000   14.0700000   27.6220000  
O 13.7110000   20.1660000   27.0250000  
O 13.5590000   20.1600000   29.8470000  
H 15.1110000   18.3230000   31.0260000  
H 16.9740000   16.0510000   30.7350000  
H 18.2190000   14.6720000   30.4350000  
H 17.3750000   16.6600000   26.4980000  
H 13.7710000   19.9630000   26.1260000  
H 12.8360000   20.5270000   29.3370000  
C 15.6270000   18.4210000   25.6340000  
C 14.7510000   17.6420000   24.8090000  
C 14.9300000   17.5910000   23.4260000  
C 15.9990000   18.1770000   22.6880000  
C 16.9530000   18.6930000   23.5440000  
C 16.8300000   18.8020000   24.9630000  
C 13.5040000   16.9930000   25.0470000  
C 12.9920000   16.5990000   23.7890000  
N 13.8480000   16.9830000   22.7950000  
O 11.0680000   15.5460000   24.6410000  
C 11.6990000   15.9810000   23.5160000  
O 11.2500000   15.7390000   22.3780000  
O 18.0330000   19.3610000   23.0390000  
O 17.8080000   19.4480000   25.6660000  
H 13.1190000   16.7260000   25.9820000  
H 11.7300000   15.7640000   25.2880000  
H 13.7600000   16.9120000   21.7750000  
H 18.6080000   19.4650000   23.8410000  
H 17.5030000   19.4840000   26.5680000  
C 16.0590000   18.1610000   21.2490000  
C 14.9610000   18.6410000   20.5160000  
C 14.9400000   18.5750000   19.1600000  
C 15.9140000   18.0880000   18.2880000  
C 17.0640000   17.6390000   19.0060000  
C 17.1420000   17.6610000   20.4550000  
C 13.7710000   19.3850000   20.8500000  
C 13.0650000   19.6690000   19.6910000  
N 13.8300000   19.1670000   18.6050000  
O 11.1220000   20.4790000   20.7920000  
C 11.6640000   20.1330000   19.5800000  
O 11.0080000   20.1050000   18.5980000  
O 18.1170000   17.1540000   18.2940000  
O 18.2300000   16.9690000   21.0050000  
H 13.3190000   19.5000000   21.8420000  
H 11.8120000   20.4280000   21.4130000  
H 13.5990000   19.3170000   17.6280000  
H 17.9050000   17.1400000   17.3050000  
H 18.6170000   16.3300000   20.3810000  
C 15.7180000   18.0170000   16.8280000  
C 16.6310000   18.5640000   15.9210000  
C 16.3990000   18.5490000   14.5800000  
C 15.3230000   17.9200000   13.9400000  
C 14.4400000   17.2060000   14.8010000  
C 14.5910000   17.3470000   16.2460000  
C 17.8660000   19.3190000   16.0970000  
C 18.3410000   19.6500000   14.8210000  
N 17.3470000   19.3420000   13.9260000  
O 20.5860000   20.3430000   15.5400000  
C 19.6610000   20.2780000   14.5520000  
O 19.8510000   20.6810000   13.3740000  
O 13.4280000   16.4600000   14.3920000  
O 13.8320000   16.5050000   17.0030000  
H 18.2900000   19.6300000   16.9980000  
H 20.2190000   19.8570000   16.3050000  
H 17.2640000   19.4900000   12.9880000  
H 13.1330000   15.8700000   15.1780000  
H 14.1910000   16.5100000   17.9890000  
H 15.2570000   17.8550000   12.8550000  
