78
001 
C 14.2620000   19.8230000   14.3620000  
C 13.7070000   18.6630000   13.8160000  
C 13.2820000   17.7130000   14.7240000  
C 13.3650000   17.8450000   16.1010000  
C 14.0420000   18.9400000   16.7140000  
C 14.4260000   19.9900000   15.8040000  
C 12.6160000   16.4550000   14.4860000  
C 12.5870000   15.8720000   15.7710000  
N 12.9650000   16.7840000   16.7790000  
O 12.2850000   13.6780000   14.9110000  
C 12.3060000   14.4260000   16.0250000  
O 12.0710000   13.8700000   17.1080000  
O 15.1460000   21.0480000   16.3180000  
O 14.8820000   20.7760000   13.5370000  
H 13.5730000   18.4630000   12.7410000  
H 12.5660000   15.9900000   13.5320000  
H 12.3650000   14.4330000   14.2490000  
H 13.0400000   16.6420000   17.8230000  
H 15.3490000   20.9490000   17.3250000  
H 15.3010000   21.5120000   14.0980000  
C 14.2250000   18.9900000   18.2000000  
C 15.1570000   18.1410000   18.8890000  
C 15.4700000   18.2420000   20.2550000  
C 14.9390000   19.2160000   21.1130000  
C 13.9180000   20.0150000   20.4540000  
C 13.5590000   19.8720000   19.0380000  
C 16.0370000   17.1440000   18.3030000  
C 16.8090000   16.6960000   19.3520000  
N 16.4220000   17.3110000   20.5850000  
O 18.0560000   15.1910000   18.0090000  
C 17.7990000   15.6130000   19.2770000  
O 18.3580000   15.1370000   20.2310000  
O 13.3370000   20.9660000   21.2380000  
O 12.6680000   20.7760000   18.5090000  
H 16.0990000   16.7900000   17.2990000  
H 17.2460000   15.4240000   17.5520000  
H 16.8450000   17.1860000   21.4940000  
H 12.5140000   21.3040000   20.8090000  
H 12.4480000   20.4720000   17.6380000  
C 15.3460000   19.1310000   22.5290000  
C 16.6990000   19.3970000   22.8680000  
C 17.1120000   19.3630000   24.1720000  
C 16.2530000   19.0360000   25.2620000  
C 14.8860000   18.7750000   24.9180000  
C 14.4150000   18.7720000   23.6030000  
C 17.9970000   19.6390000   22.1960000  
C 19.0550000   19.7630000   23.1100000  
N 18.4660000   19.6360000   24.3860000  
O 20.7820000   19.9530000   21.4320000  
C 20.5110000   19.9170000   22.7550000  
O 21.4260000   19.9620000   23.5830000  
O 13.9990000   18.5150000   25.9370000  
O 13.1230000   18.5940000   23.3640000  
H 18.1380000   19.5370000   21.1190000  
H 19.9420000   19.6390000   21.0360000  
H 18.9770000   19.6700000   25.2360000  
H 14.5050000   18.5020000   26.8220000  
H 12.6650000   18.6040000   24.2620000  
C 16.8030000   18.9750000   26.6690000  
C 16.3110000   19.8960000   27.6450000  
C 16.9360000   19.9030000   28.9370000  
C 17.7930000   18.9110000   29.3980000  
C 18.2790000   18.0220000   28.3900000  
C 17.8560000   18.0540000   27.0180000  
C 15.4910000   21.1060000   27.5320000  
C 15.3810000   21.5860000   28.8210000  
N 16.3190000   20.9420000   29.5890000  
O 13.5490000   23.1330000   28.4220000  
C 14.5420000   22.7170000   29.2090000  
O 14.6810000   23.0760000   30.3240000  
O 19.2590000   17.1250000   28.7750000  
O 18.3990000   17.2140000   26.0840000  
H 14.8200000   21.4460000   26.7870000  
H 13.5170000   22.4850000   27.7080000  
H 16.3110000   21.1900000   30.5440000  
H 19.5710000   16.6040000   27.9980000  
H 17.9410000   17.2900000   25.2430000  
H 18.0150000   18.8230000   30.4340000  
