78
010 
C 17.0360000   11.9250000   17.5380000  
C 15.8360000   11.1580000   17.7870000  
C 14.9340000   11.7220000   18.6880000  
C 15.2270000   12.8980000   19.2900000  
C 16.3400000   13.7030000   19.0920000  
C 17.2950000   13.1780000   18.1740000  
C 13.6850000   11.2240000   19.3170000  
C 13.4710000   12.0440000   20.4320000  
N 14.2740000   13.2010000   20.2470000  
O 11.5070000   10.8940000   21.3000000  
C 12.3670000   11.8990000   21.4250000  
O 12.1480000   12.7520000   22.2610000  
O 18.4020000   13.9140000   17.7960000  
O 17.9130000   11.3760000   16.6640000  
H 15.8090000   10.1130000   17.3740000  
H 13.2290000   10.2720000   19.1450000  
H 11.9410000   10.3110000   20.7340000  
H 14.3360000   14.0430000   20.7880000  
H 18.5390000   14.4560000   18.5920000  
H 18.4270000   12.1280000   16.3370000  
C 16.5850000   14.9930000   19.7960000  
C 16.8820000   15.0430000   21.2390000  
C 16.8370000   16.2460000   21.9120000  
C 16.5410000   17.4850000   21.3570000  
C 16.3880000   17.4570000   19.9040000  
C 16.2060000   16.2530000   19.2470000  
C 17.4070000   14.0670000   22.1470000  
C 17.5300000   14.7090000   23.3930000  
N 17.0640000   16.0460000   23.2580000  
O 18.3930000   12.8430000   24.6190000  
C 17.8570000   14.0670000   24.7100000  
O 17.7650000   14.6370000   25.7950000  
O 15.9440000   18.6010000   19.2570000  
O 15.6310000   16.2540000   17.9860000  
H 17.6920000   13.0620000   21.8560000  
H 18.4470000   12.7500000   23.6540000  
H 16.9620000   16.6870000   24.0460000  
H 15.6610000   18.4280000   18.3410000  
H 15.4340000   15.3710000   17.7860000  
C 16.2010000   18.6980000   22.1630000  
C 16.9040000   19.9160000   21.8430000  
C 16.5650000   21.0570000   22.4940000  
C 15.4960000   21.1870000   23.3860000  
C 14.8160000   19.9460000   23.6880000  
C 15.1810000   18.7000000   23.1320000  
C 17.9470000   20.2690000   20.9630000  
C 18.3070000   21.6160000   21.2580000  
N 17.3280000   22.1400000   22.1300000  
O 20.2980000   21.8760000   19.8850000  
C 19.4980000   22.4200000   20.7960000  
O 19.7820000   23.5340000   21.2230000  
O 13.7210000   19.8940000   24.5210000  
O 14.4830000   17.5470000   23.4100000  
H 18.5540000   19.5520000   20.3310000  
H 19.8140000   21.2280000   19.4450000  
H 17.1150000   23.1020000   22.4140000  
H 13.3710000   20.7940000   24.6800000  
H 13.6910000   17.6690000   24.0200000  
C 15.0730000   22.4560000   24.0730000  
C 13.8470000   23.0670000   23.7700000  
C 13.4760000   24.1630000   24.5340000  
C 14.1990000   24.7220000   25.5570000  
C 15.4240000   24.0900000   25.8560000  
C 15.8790000   23.0450000   25.0870000  
C 12.8430000   22.7480000   22.7860000  
C 11.7630000   23.5570000   23.1250000  
N 12.1170000   24.3860000   24.2380000  
O 10.3970000   23.0370000   21.2760000  
C 10.4610000   23.6740000   22.4710000  
O  9.5100000   24.3500000   22.8810000  
O 16.2570000   24.6600000   26.7950000  
O 17.1480000   22.5610000   25.2780000  
H 12.8920000   22.0590000   21.9520000  
H 11.2650000   22.6090000   21.1680000  
H 11.5430000   25.0940000   24.6730000  
H 17.0740000   24.0670000   26.9380000  
H 17.3350000   21.9440000   24.5230000  
H 13.8230000   25.5610000   26.1100000  
