78
010 
C  8.7560000   18.5320000   23.4020000  
C  7.9620000   19.3030000   22.4910000  
C  8.5950000   19.8960000   21.4180000  
C  9.9130000   19.7160000   21.2050000  
C 10.7660000   19.0600000   22.0590000  
C 10.1540000   18.3710000   23.1140000  
C  8.0260000   20.6930000   20.3530000  
C  9.1350000   21.0690000   19.5160000  
N 10.2900000   20.4540000   20.0870000  
O  8.0280000   22.5170000   18.0330000  
C  9.1190000   21.7910000   18.2640000  
O 10.1850000   22.0220000   17.6090000  
O 10.8410000   17.7830000   24.0600000  
O  8.1870000   17.9300000   24.5030000  
H  6.9150000   19.4840000   22.6900000  
H  6.9440000   20.8900000   20.0820000  
H  7.4630000   22.2560000   18.7160000  
H 11.1330000   20.3340000   19.6380000  
H 11.6630000   18.2370000   24.0820000  
H  8.9160000   17.3480000   24.8300000  
C 12.1900000   18.9980000   21.7970000  
C 13.1020000   19.6460000   22.6690000  
C 14.4370000   19.4660000   22.5340000  
C 15.0350000   18.6240000   21.5540000  
C 14.1040000   18.0390000   20.6280000  
C 12.7000000   18.2230000   20.7640000  
C 12.9530000   20.5790000   23.7410000  
C 14.1810000   20.8470000   24.2580000  
N 15.1320000   20.1980000   23.4800000  
O 13.2640000   22.4780000   25.8470000  
C 14.3520000   21.8120000   25.4400000  
O 15.4520000   21.9840000   25.9980000  
O 14.4600000   17.2360000   19.6350000  
O 11.9330000   17.6840000   19.8280000  
H 12.0540000   20.9690000   24.1760000  
H 12.6120000   22.3860000   25.1480000  
H 16.1280000   20.3580000   23.5340000  
H 15.3780000   17.3840000   19.4520000  
H 11.0560000   18.0900000   19.9530000  
C 16.4780000   18.3040000   21.5190000  
C 17.1410000   17.7170000   22.6360000  
C 18.4170000   17.3200000   22.5000000  
C 19.2540000   17.4800000   21.3950000  
C 18.6600000   18.0990000   20.2830000  
C 17.3300000   18.5520000   20.3820000  
C 16.7140000   17.3210000   23.9150000  
C 17.7620000   16.6560000   24.4990000  
N 18.8500000   16.7950000   23.6240000  
O 16.6210000   15.8930000   26.4540000  
C 17.8090000   15.8720000   25.7860000  
O 18.7470000   15.1940000   26.0690000  
O 19.4560000   18.2430000   19.1440000  
O 16.9130000   19.2490000   19.2840000  
H 15.7400000   17.3420000   24.3860000  
H 16.0630000   16.4090000   25.9680000  
H 19.7600000   16.3720000   23.9160000  
H 20.2600000   17.7320000   19.2760000  
H 17.5940000   19.3190000   18.6600000  
C 20.6250000   17.0020000   21.3790000  
C 20.7790000   15.6140000   20.9480000  
C 22.0210000   15.0590000   20.7150000  
C 23.1900000   15.8170000   20.9440000  
C 23.0730000   17.1310000   21.4670000  
C 21.8120000   17.6980000   21.6570000  
C 19.7940000   14.5690000   20.6940000  
C 20.4950000   13.4810000   20.3160000  
N 21.8480000   13.7090000   20.3170000  
O 18.5460000   12.0780000   19.8870000  
C 19.9180000   12.1950000   19.8910000  
O 20.6310000   11.2730000   19.5140000  
O 24.1240000   17.8830000   21.7950000  
O 21.7250000   18.9850000   22.1900000  
H 18.7590000   14.7300000   20.7000000  
H 18.2260000   12.9730000   19.9540000  
H 22.4870000   12.9270000   20.3270000  
H 23.7650000   18.4660000   22.5160000  
H 20.7560000   19.3910000   22.2500000  
H 24.2080000   15.4250000   20.8350000  
