78
010 
C  9.4330000   14.6920000   19.4430000  
C  8.6490000   15.5370000   18.6980000  
C  9.2560000   16.7390000   18.3560000  
C 10.5050000   17.0640000   18.7830000  
C 11.3240000   16.1950000   19.5070000  
C 10.7560000   14.9800000   19.8300000  
C  8.8400000   17.8370000   17.5210000  
C  9.8580000   18.7690000   17.5100000  
N 10.9190000   18.3000000   18.3010000  
O  8.9170000   20.4070000   15.9230000  
C  9.8380000   20.1690000   16.8590000  
O 10.7290000   20.9420000   17.1080000  
O 11.3800000   14.1230000   20.6350000  
O  8.7790000   13.5800000   19.9190000  
H  7.7150000   15.1540000   18.3570000  
H  7.9210000   17.9110000   17.0030000  
H  8.4480000   19.5930000   15.7410000  
H 11.7510000   18.7510000   18.5240000  
H 12.1800000   14.6690000   20.8080000  
H  9.2700000   13.1030000   20.5820000  
C 12.6640000   16.5490000   19.9870000  
C 12.9150000   17.7620000   20.7480000  
C 14.1370000   18.0960000   21.1630000  
C 15.2780000   17.3090000   21.0570000  
C 15.1010000   16.1110000   20.3250000  
C 13.8360000   15.7540000   19.7670000  
C 12.0040000   18.7970000   21.2350000  
C 12.7810000   19.7550000   21.8630000  
N 14.1450000   19.3340000   21.8050000  
O 11.0430000   21.3360000   22.2690000  
C 12.2890000   21.0090000   22.4620000  
O 13.0530000   21.7530000   23.0400000  
O 16.1500000   15.3620000   20.0460000  
O 13.7230000   14.6840000   18.9190000  
H 10.9070000   18.8090000   21.0260000  
H 10.7260000   20.6090000   21.7150000  
H 14.9100000   19.7910000   22.1950000  
H 16.9080000   15.8020000   20.4680000  
H 14.5340000   14.2840000   18.8870000  
C 16.5790000   17.7360000   21.6290000  
C 16.6670000   17.7430000   23.0620000  
C 17.7550000   18.3420000   23.7020000  
C 18.7800000   18.9610000   22.9860000  
C 18.6750000   18.8510000   21.5590000  
C 17.5820000   18.2780000   20.8560000  
C 15.8410000   17.1530000   24.0590000  
C 16.3860000   17.5380000   25.3030000  
N 17.6730000   18.2160000   25.0360000  
O 14.6390000   16.7020000   26.6030000  
C 15.7790000   17.3620000   26.6370000  
O 16.3710000   17.6800000   27.6970000  
O 19.6290000   19.5350000   20.7840000  
O 17.6180000   18.3320000   19.4960000  
H 14.8510000   16.6990000   23.9130000  
H 14.5250000   16.5340000   25.6840000  
H 18.3600000   18.5840000   25.6990000  
H 20.2210000   19.9620000   21.3860000  
H 18.3220000   18.7760000   19.0880000  
C 19.9600000   19.6260000   23.6510000  
C 21.0570000   18.8040000   23.9020000  
C 22.0870000   19.2350000   24.6860000  
C 22.2550000   20.5620000   25.1730000  
C 21.1750000   21.4620000   24.8750000  
C 20.0640000   20.9870000   24.0730000  
C 21.2410000   17.4020000   23.6930000  
C 22.4910000   17.0710000   24.2570000  
N 23.0300000   18.2710000   24.8160000  
O 22.4530000   14.7120000   23.7580000  
C 23.1500000   15.7790000   24.2860000  
O 24.2350000   15.6960000   24.7610000  
O 21.3480000   22.7970000   25.2340000  
O 19.0640000   21.8530000   23.7600000  
H 20.4970000   16.7360000   23.1560000  
H 21.5430000   15.0240000   23.5110000  
H 23.9850000   18.3430000   25.2290000  
H 20.7990000   23.4270000   24.6510000  
H 18.2690000   21.2560000   23.4820000  
H 23.0980000   20.9120000   25.6290000  
