78
010 
C 11.1150000   18.8280000   27.9660000  
C 11.8960000   19.5270000   28.8920000  
C 13.1320000   19.9670000   28.4940000  
C 13.5550000   19.7950000   27.1990000  
C 12.8030000   19.1670000   26.1960000  
C 11.5330000   18.7020000   26.6300000  
C 14.2420000   20.6330000   29.1610000  
C 15.2640000   20.7410000   28.2110000  
N 14.8660000   20.1370000   27.0450000  
O 16.9600000   21.4720000   29.6520000  
C 16.6280000   21.1480000   28.4340000  
O 17.4810000   21.0690000   27.5920000  
O 10.7810000   17.9630000   25.6590000  
O  9.8790000   18.2830000   28.4110000  
H 11.4310000   19.6780000   29.9010000  
H 14.3000000   21.0060000   30.2460000  
H 16.1770000   21.4340000   30.1860000  
H 15.3420000   20.0460000   26.1560000  
H 11.4030000   17.7440000   24.9990000  
H  9.4050000   17.7330000   27.7600000  
C 13.3600000   18.9400000   24.8900000  
C 13.7020000   17.6160000   24.3860000  
C 14.2700000   17.3980000   23.1730000  
C 14.6450000   18.3810000   22.2870000  
C 14.3890000   19.6600000   22.7530000  
C 13.7660000   20.0020000   24.0120000  
C 13.7030000   16.3800000   25.1060000  
C 14.1600000   15.3790000   24.2030000  
N 14.4240000   16.0330000   22.9810000  
O 13.8660000   13.4420000   25.5810000  
C 14.3830000   13.9540000   24.4540000  
O 14.8720000   13.2080000   23.6030000  
O 14.8850000   20.7930000   22.0590000  
O 13.6280000   21.3270000   24.4500000  
H 13.4190000   16.1780000   26.1560000  
H 13.4220000   14.1820000   26.0680000  
H 14.9430000   15.6010000   22.2370000  
H 14.7410000   21.5330000   22.6040000  
H 12.8120000   21.3400000   25.0110000  
C 15.4890000   18.0320000   21.1050000  
C 14.9050000   17.6760000   19.8770000  
C 15.7100000   17.3340000   18.8250000  
C 17.0380000   17.0590000   18.8940000  
C 17.6600000   17.4460000   20.1420000  
C 16.9250000   17.9600000   21.2150000  
C 13.6150000   17.7640000   19.3330000  
C 13.6640000   17.3640000   18.0000000  
N 15.0000000   17.0880000   17.6920000  
O 11.3490000   17.8010000   17.5610000  
C 12.5270000   17.2490000   17.0800000  
O 12.6450000   16.8240000   15.9180000  
O 19.0240000   17.2840000   20.2160000  
O 17.4970000   18.2520000   22.4500000  
H 12.7360000   18.1130000   19.8580000  
H 11.4340000   17.9630000   18.5530000  
H 15.2500000   17.0040000   16.7790000  
H 19.4650000   16.7410000   19.4890000  
H 18.4710000   18.0400000   22.3560000  
C 17.9270000   16.6100000   17.7210000  
C 18.6500000   17.5300000   16.9880000  
C 19.6940000   17.1650000   16.1600000  
C 20.2210000   15.8460000   16.2430000  
C 19.5740000   14.9130000   17.0840000  
C 18.3550000   15.2330000   17.7190000  
C 18.6460000   19.0110000   16.8060000  
C 19.5740000   19.4090000   15.9380000  
N 20.2590000   18.2820000   15.5500000  
O 19.1490000   21.6780000   15.9960000  
C 19.8670000   20.7530000   15.4430000  
O 20.8090000   20.9500000   14.6820000  
O 19.9560000   13.6080000   17.0920000  
O 17.7350000   14.2540000   18.4410000  
H 17.8600000   19.6080000   17.2740000  
H 18.5210000   21.2430000   16.6310000  
H 20.9610000   18.2080000   14.8540000  
H 19.2930000   13.1630000   17.6270000  
H 16.9930000   14.6030000   19.0880000  
H 21.0520000   15.6050000   15.6600000  
