78
010 
C  8.5440000   16.3530000   20.2200000  
C  7.8050000   17.5320000   20.0580000  
C  8.4980000   18.7420000   19.7950000  
C  9.8970000   18.7400000   19.8050000  
C 10.6880000   17.6980000   20.1150000  
C  9.9710000   16.4580000   20.3150000  
C  8.0850000   20.0290000   19.3300000  
C  9.2790000   20.8100000   19.1950000  
N 10.3800000   19.9900000   19.5050000  
O  8.3170000   22.8540000   18.6430000  
C  9.4550000   22.2030000   18.8530000  
O 10.5150000   22.7810000   18.8630000  
O 10.7100000   15.3210000   20.4500000  
O  7.9020000   15.1450000   20.4500000  
H  6.7460000   17.5180000   20.0150000  
H  7.1170000   20.3440000   18.9900000  
H  7.5950000   22.2320000   18.5640000  
H 11.3360000   20.2680000   19.4730000  
H 11.6800000   15.5630000   20.3500000  
H  8.5200000   14.4460000   20.5810000  
C 12.1380000   17.7860000   20.5100000  
C 12.5120000   18.0640000   21.8100000  
C 13.8430000   18.1580000   22.1750000  
C 14.9250000   18.0410000   21.2730000  
C 14.4970000   17.7840000   19.9210000  
C 13.1740000   17.6920000   19.5290000  
C 11.7930000   18.2980000   23.0250000  
C 12.7000000   18.5110000   24.0500000  
N 13.9720000   18.4010000   23.5270000  
O 11.2280000   19.0100000   25.8610000  
C 12.5110000   18.9530000   25.4720000  
O 13.4220000   19.1770000   26.2180000  
O 15.4830000   17.5350000   18.9680000  
O 12.9470000   17.3410000   18.2140000  
H 10.7610000   18.4480000   23.1070000  
H 10.8050000   18.8690000   25.0010000  
H 14.8450000   18.4580000   24.0640000  
H 16.3610000   17.6140000   19.4710000  
H 13.7490000   17.4570000   17.6760000  
C 16.3320000   18.1620000   21.6940000  
C 16.8700000   17.1750000   22.5460000  
C 18.1450000   17.3790000   23.0310000  
C 18.9450000   18.5220000   22.7960000  
C 18.3760000   19.5200000   21.9290000  
C 17.0830000   19.3010000   21.3420000  
C 16.4530000   15.8520000   22.9830000  
C 17.5330000   15.3410000   23.7470000  
N 18.5830000   16.2730000   23.7940000  
O 16.7080000   13.0960000   23.8840000  
C 17.6100000   13.9680000   24.2710000  
O 18.4740000   13.6800000   25.0510000  
O 19.0220000   20.6150000   21.5690000  
O 16.5280000   20.2170000   20.4570000  
H 15.5140000   15.4300000   22.7600000  
H 16.2200000   13.6120000   23.2180000  
H 19.3790000   16.1520000   24.2970000  
H 19.9580000   20.2670000   21.4360000  
H 17.2510000   20.9130000   20.3940000  
C 20.3630000   18.7670000   23.2840000  
C 21.4260000   18.0190000   22.6700000  
C 22.6870000   18.2040000   23.0640000  
C 23.0640000   18.9870000   24.1680000  
C 22.0050000   19.5900000   24.8870000  
C 20.6880000   19.4800000   24.4860000  
C 21.3820000   17.0760000   21.6040000  
C 22.7230000   16.7590000   21.3330000  
N 23.5050000   17.3670000   22.3490000  
O 22.2620000   15.5180000   19.3450000  
C 23.2220000   15.9330000   20.2290000  
O 24.3740000   15.5130000   19.9920000  
O 22.3400000   20.3080000   25.9960000  
O 19.6880000   20.1490000   25.0950000  
H 20.4690000   16.7440000   21.1440000  
H 21.4660000   15.9910000   19.6180000  
H 24.5640000   17.3590000   22.3550000  
H 21.4920000   20.6150000   26.2580000  
H 18.9500000   19.9850000   24.6170000  
H 24.1540000   18.9610000   24.5070000  
