78
010 
C  9.6000000   16.4790000   17.7050000  
C  9.5060000   15.1540000   17.3410000  
C 10.5510000   14.3640000   17.8000000  
C 11.6470000   14.8020000   18.4270000  
C 11.7770000   16.0950000   18.9100000  
C 10.7130000   16.9440000   18.5290000  
C 10.7590000   12.9290000   17.6050000  
C 11.9240000   12.5150000   18.2110000  
N 12.4950000   13.7190000   18.7010000  
O 11.9490000   10.2570000   17.5560000  
C 12.5520000   11.1630000   18.3170000  
O 13.4870000   10.8960000   19.0620000  
O 10.8100000   18.2830000   18.9540000  
O  8.6450000   17.3080000   17.1920000  
H  8.7710000   14.7740000   16.7040000  
H 10.1180000   12.2400000   17.1490000  
H 11.2620000   10.7790000   17.0720000  
H 13.4400000   13.7620000   19.0310000  
H 11.5180000   18.4240000   19.5650000  
H  8.9090000   18.1380000   17.6600000  
C 12.9330000   16.4600000   19.7890000  
C 13.8930000   17.3750000   19.3320000  
C 15.0320000   17.6450000   20.0560000  
C 15.2970000   17.2070000   21.3040000  
C 14.2820000   16.3090000   21.8130000  
C 13.1540000   15.9150000   21.0620000  
C 14.0120000   17.9230000   18.0250000  
C 15.1380000   18.7250000   18.1150000  
N 15.8490000   18.4170000   19.2680000  
O 14.8110000   20.0060000   16.2260000  
C 15.6740000   19.7000000   17.1800000  
O 16.7370000   20.2560000   17.1860000  
O 14.3560000   15.9890000   23.0880000  
O 12.1860000   15.2320000   21.6480000  
H 13.3980000   17.9310000   17.1660000  
H 13.9530000   19.6060000   16.4200000  
H 16.7180000   18.7610000   19.5020000  
H 13.6670000   15.3750000   23.3080000  
H 11.3600000   15.6570000   21.5130000  
C 16.4230000   17.7500000   22.1650000  
C 16.3460000   19.0700000   22.7040000  
C 17.3400000   19.5120000   23.4450000  
C 18.5020000   18.8300000   23.9070000  
C 18.6360000   17.4930000   23.3760000  
C 17.6030000   16.9900000   22.4920000  
C 15.2740000   20.0700000   22.7130000  
C 15.8370000   21.1530000   23.4530000  
N 17.0960000   20.7810000   23.9040000  
O 13.8730000   22.4980000   23.4930000  
C 15.1310000   22.3860000   23.9090000  
O 15.6160000   23.1740000   24.6860000  
O 19.7150000   16.6990000   23.7150000  
O 17.7070000   15.6540000   22.1020000  
H 14.1890000   19.8790000   22.4880000  
H 13.6800000   21.6410000   23.1230000  
H 17.7770000   21.3280000   24.4990000  
H 20.4660000   17.2910000   23.8760000  
H 18.4700000   15.2570000   22.5070000  
C 19.6070000   19.4640000   24.7080000  
C 19.3700000   20.1640000   25.8800000  
C 20.3720000   20.9390000   26.4790000  
C 21.6590000   21.1250000   26.0390000  
C 21.9940000   20.4240000   24.8590000  
C 20.9450000   19.6020000   24.1880000  
C 18.1940000   20.2420000   26.7310000  
C 18.5380000   21.2080000   27.7070000  
N 19.8550000   21.5910000   27.5940000  
O 16.5140000   21.0310000   28.9550000  
C 17.6830000   21.6730000   28.7370000  
O 17.9920000   22.6670000   29.4530000  
O 23.2850000   20.4480000   24.4010000  
O 21.2830000   19.0080000   22.9790000  
H 17.2410000   19.6320000   26.6710000  
H 16.5830000   20.2750000   28.3650000  
H 20.3250000   22.3800000   28.1150000  
H 23.3160000   20.0420000   23.5180000  
H 20.5290000   18.4510000   22.7820000  
H 22.3760000   21.7610000   26.5810000  
