78
010 
C  7.9540000   18.6180000   21.0590000  
C  7.7310000   18.7960000   19.6440000  
C  8.8170000   18.6840000   18.8490000  
C 10.0580000   18.4700000   19.3900000  
C 10.3700000   18.3740000   20.7890000  
C  9.2160000   18.3770000   21.5850000  
C  8.8820000   18.6450000   17.4040000  
C 10.2690000   18.4510000   17.1450000  
N 10.9820000   18.3380000   18.3790000  
O 10.1640000   18.3890000   14.7360000  
C 10.9740000   18.2120000   15.8390000  
O 12.1280000   17.8720000   15.6780000  
O  9.4300000   18.4340000   22.8950000  
O  6.9480000   18.9640000   21.8920000  
H  6.6960000   18.9690000   19.2070000  
H  8.0830000   18.7060000   16.5580000  
H  9.2220000   18.3920000   15.0260000  
H 11.9630000   18.3380000   18.5840000  
H 10.3920000   18.3500000   23.1400000  
H  7.3730000   19.0560000   22.7530000  
C 11.8410000   18.2070000   21.2660000  
C 12.7980000   19.2500000   21.1200000  
C 14.1070000   19.0890000   21.5180000  
C 14.6090000   17.8780000   21.9960000  
C 13.6500000   16.8060000   22.2530000  
C 12.2920000   16.9820000   21.8870000  
C 12.7170000   20.5670000   20.6030000  
C 13.9820000   21.1040000   20.6340000  
N 14.8930000   20.2030000   21.2730000  
O 13.5270000   22.9410000   19.2840000  
C 14.4260000   22.3860000   20.0730000  
O 15.5840000   22.8000000   20.1570000  
O 14.0140000   15.5950000   22.8020000  
O 11.3230000   15.9600000   21.9570000  
H 11.7740000   20.9830000   20.2920000  
H 12.7420000   22.4110000   19.4580000  
H 15.8890000   20.2800000   21.2970000  
H 14.9480000   15.4710000   22.8090000  
H 10.4370000   16.1870000   21.6780000  
C 16.0460000   17.6820000   22.2610000  
C 16.6200000   17.9180000   23.5030000  
C 17.9990000   17.9760000   23.6100000  
C 18.9600000   17.7820000   22.6200000  
C 18.4240000   17.3370000   21.3510000  
C 16.9970000   17.3320000   21.1370000  
C 16.0460000   18.4200000   24.7300000  
C 17.1100000   18.6770000   25.5710000  
N 18.2930000   18.3970000   24.8680000  
O 15.7680000   19.5570000   27.3700000  
C 17.0210000   19.1240000   27.0030000  
O 17.9490000   19.1650000   27.7610000  
O 19.2630000   16.9730000   20.3270000  
O 16.4810000   17.0120000   19.9510000  
H 14.9320000   18.4710000   24.9320000  
H 15.1430000   19.4170000   26.6180000  
H 19.1860000   18.4040000   25.3000000  
H 20.1650000   17.1840000   20.6450000  
H 17.2300000   16.7850000   19.3420000  
C 20.4590000   17.6460000   22.9160000  
C 21.0630000   16.4780000   23.4030000  
C 22.4290000   16.4700000   23.5920000  
C 23.2390000   17.5360000   23.3370000  
C 22.6680000   18.7740000   22.8630000  
C 21.2700000   18.7520000   22.5810000  
C 20.5690000   15.2440000   23.8070000  
C 21.6690000   14.5110000   24.2220000  
N 22.7820000   15.2690000   24.0620000  
O 20.4790000   12.4300000   24.5130000  
C 21.6660000   13.0380000   24.6840000  
O 22.6470000   12.5320000   25.1440000  
O 23.4100000   19.8750000   22.6370000  
O 20.7410000   19.7790000   21.9250000  
H 19.5190000   14.9180000   23.7920000  
H 19.7740000   13.0970000   24.3700000  
H 23.6840000   14.9330000   24.1190000  
H 22.8090000   20.5610000   22.2920000  
H 19.8260000   19.6810000   22.0170000  
H 24.3280000   17.4810000   23.6390000  
