78
010 
C  9.1710000   21.3170000   23.3910000  
C  8.9000000   21.3660000   24.7300000  
C  9.9640000   20.9960000   25.5550000  
C 11.1430000   20.5990000   25.0860000  
C 11.4740000   20.5420000   23.6990000  
C 10.4460000   20.9390000   22.8610000  
C  9.9940000   20.8390000   27.0000000  
C 11.2960000   20.3700000   27.3030000  
N 11.9520000   20.1200000   26.0830000  
O 10.9870000   20.3350000   29.6310000  
C 11.8930000   20.0500000   28.6520000  
O 12.9910000   19.5960000   28.8680000  
O 10.5920000   20.8430000   21.5410000  
O  8.1600000   21.7760000   22.5880000  
H  7.9200000   21.4780000   25.1650000  
H  9.2640000   21.2880000   27.7180000  
H 10.2240000   20.5680000   29.1150000  
H 12.8980000   19.7850000   25.9240000  
H 11.5790000   20.7280000   21.4620000  
H  8.5160000   21.9940000   21.6710000  
C 12.7760000   19.9580000   23.1920000  
C 12.8730000   18.5270000   23.1230000  
C 14.0350000   18.0260000   22.6400000  
C 15.2360000   18.6880000   22.4190000  
C 15.1940000   20.1490000   22.5850000  
C 13.9490000   20.7390000   22.9790000  
C 11.8970000   17.4800000   23.2460000  
C 12.6220000   16.3480000   23.0020000  
N 13.8710000   16.7050000   22.4370000  
O 11.0490000   14.7930000   23.8620000  
C 12.2180000   14.9260000   23.3220000  
O 12.7900000   13.9080000   22.9780000  
O 16.2900000   20.9260000   22.4650000  
O 13.8740000   22.0550000   23.1080000  
H 10.8530000   17.5440000   23.5770000  
H 10.7800000   15.6490000   24.2960000  
H 14.6200000   16.0100000   22.3670000  
H 17.1220000   20.3820000   22.2710000  
H 14.7270000   22.4220000   22.7890000  
C 16.3790000   17.8770000   21.8260000  
C 16.3310000   17.3010000   20.5430000  
C 17.3960000   16.6130000   20.1180000  
C 18.6370000   16.4890000   20.7710000  
C 18.6870000   17.0670000   22.0840000  
C 17.5430000   17.6960000   22.5950000  
C 15.4160000   17.3160000   19.4290000  
C 16.0560000   16.6150000   18.4180000  
N 17.3510000   16.2470000   18.7840000  
O 14.1940000   16.9190000   16.9390000  
C 15.4160000   16.3900000   17.0790000  
O 15.9180000   15.7840000   16.1520000  
O 19.8680000   17.1210000   22.7610000  
O 17.5860000   18.2650000   23.8240000  
H 14.3860000   17.7000000   19.3640000  
H 14.1190000   17.4620000   17.7390000  
H 18.0520000   15.7880000   18.2270000  
H 20.6150000   16.7510000   22.3440000  
H 18.4390000   18.2110000   24.2170000  
C 19.8650000   15.8480000   20.2020000  
C 20.5570000   16.5330000   19.1900000  
C 21.7560000   16.0500000   18.7520000  
C 22.3670000   14.9270000   19.2660000  
C 21.6780000   14.1540000   20.2200000  
C 20.3960000   14.5870000   20.6940000  
C 20.3300000   17.7890000   18.5330000  
C 21.3910000   17.9810000   17.6860000  
N 22.3620000   16.9850000   17.8500000  
O 20.5610000   19.9070000   16.6170000  
C 21.5980000   19.0510000   16.8130000  
O 22.6290000   19.1730000   16.1370000  
O 22.2330000   12.9770000   20.6450000  
O 19.6380000   13.7600000   21.4840000  
H 19.3830000   18.3920000   18.6100000  
H 19.9470000   19.5050000   17.2600000  
H 23.3280000   16.9020000   17.6270000  
H 21.8710000   12.6730000   21.4960000  
H 18.6660000   13.9840000   21.3540000  
H 23.3050000   14.6240000   18.9430000  
