78
010 
C 10.1510000   15.5040000   17.4230000  
C 10.3060000   14.1150000   17.2640000  
C 11.4460000   13.5220000   17.8600000  
C 12.1920000   14.1900000   18.7560000  
C 12.0640000   15.6010000   18.9750000  
C 11.0120000   16.2220000   18.2940000  
C 11.8340000   12.1110000   17.7460000  
C 12.9690000   12.1050000   18.5720000  
N 13.1650000   13.3220000   19.2550000  
O 13.2520000    9.8110000   18.1860000  
C 13.7170000   10.9140000   18.8810000  
O 14.6130000   10.9560000   19.6680000  
O 10.7850000   17.5570000   18.5590000  
O  9.1910000   16.1930000   16.7010000  
H  9.7130000   13.5680000   16.5100000  
H 11.3240000   11.2970000   17.2940000  
H 12.6270000   10.0770000   17.5040000  
H 13.8000000   13.4940000   20.0130000  
H 11.4920000   17.8330000   19.0860000  
H  9.0300000   17.1130000   17.0370000  
C 12.9380000   16.3300000   19.9430000  
C 14.1540000   16.8830000   19.4290000  
C 15.0400000   17.5660000   20.2270000  
C 14.8280000   17.7070000   21.6440000  
C 13.6250000   17.1730000   22.2130000  
C 12.6830000   16.4960000   21.3420000  
C 14.6950000   16.9300000   18.1150000  
C 15.9120000   17.6930000   18.2460000  
N 16.1240000   18.0700000   19.5720000  
O 16.7800000   17.2450000   16.0390000  
C 16.8780000   17.9290000   17.1710000  
O 17.7870000   18.6940000   17.3580000  
O 13.3370000   17.1320000   23.5760000  
O 11.5700000   15.9290000   21.9030000  
H 14.3010000   16.4010000   17.2740000  
H 15.9650000   16.7610000   16.1460000  
H 16.8580000   18.6510000   19.9300000  
H 12.4680000   16.8420000   23.7630000  
H 11.2300000   15.2220000   21.3890000  
C 15.9350000   18.3070000   22.5020000  
C 16.2350000   19.6770000   22.3070000  
C 17.2490000   20.2160000   23.0360000  
C 18.0100000   19.5750000   23.9930000  
C 17.7100000   18.1790000   24.1800000  
C 16.7030000   17.5200000   23.4300000  
C 15.7890000   20.6840000   21.3920000  
C 16.5920000   21.8520000   21.6480000  
N 17.4480000   21.5450000   22.7170000  
O 15.4580000   23.2170000   20.2070000  
C 16.4840000   23.1910000   20.9880000  
O 17.2920000   24.0480000   21.1140000  
O 18.4280000   17.5090000   25.1700000  
O 16.3610000   16.1760000   23.6350000  
H 15.1130000   20.6270000   20.5290000  
H 15.0670000   22.4000000   20.3830000  
H 18.0570000   22.2350000   23.1040000  
H 19.1930000   18.0880000   25.5160000  
H 16.7230000   15.8570000   24.4920000  
C 18.9610000   20.2400000   24.9360000  
C 18.4970000   20.8300000   26.0880000  
C 19.3600000   21.4220000   26.9620000  
C 20.7130000   21.4890000   26.7410000  
C 21.2490000   20.7380000   25.6580000  
C 20.3600000   20.1410000   24.7370000  
C 17.1260000   20.8970000   26.6510000  
C 17.2570000   21.4990000   27.9280000  
N 18.5980000   21.8910000   28.0370000  
O 14.9300000   21.3700000   28.5020000  
C 16.1490000   21.7190000   28.8790000  
O 16.4220000   22.2200000   29.9920000  
O 22.6130000   20.7010000   25.4650000  
O 20.9370000   19.4610000   23.6420000  
H 16.1570000   20.3890000   26.3940000  
H 15.0950000   20.9150000   27.6460000  
H 19.0100000   22.4220000   28.7960000  
H 22.8870000   20.0210000   24.7940000  
H 20.2730000   19.2200000   22.8840000  
H 21.3530000   22.0470000   27.4400000  
