78
010 
C 16.8380000   11.3730000   18.4010000  
C 17.0950000   10.5030000   19.5400000  
C 16.7530000   10.8900000   20.8040000  
C 16.2810000   12.1710000   21.0120000  
C 16.3080000   13.1380000   20.0610000  
C 16.5440000   12.7340000   18.7130000  
C 16.7850000   10.2730000   22.1480000  
C 16.4040000   11.2360000   23.0490000  
N 15.9950000   12.3630000   22.3590000  
O 17.0080000    9.9840000   24.9610000  
C 16.5130000   11.1520000   24.5690000  
O 16.1990000   12.1040000   25.2360000  
O 16.4670000   13.5940000   17.6560000  
O 16.8540000   10.9460000   17.1440000  
H 17.4870000    9.4780000   19.3530000  
H 17.1560000    9.2730000   22.3420000  
H 17.0730000    9.3720000   24.2440000  
H 15.6810000   13.2250000   22.7950000  
H 16.1390000   14.3990000   17.9560000  
H 16.0930000   11.5100000   16.8120000  
C 16.0050000   14.5320000   20.3410000  
C 16.7380000   15.3250000   21.2550000  
C 16.3860000   16.5680000   21.6280000  
C 15.4080000   17.3130000   21.0200000  
C 14.8210000   16.6680000   19.9220000  
C 14.9580000   15.2540000   19.7140000  
C 17.8400000   15.0080000   22.0900000  
C 18.0120000   16.0550000   23.0000000  
N 17.0900000   17.0350000   22.6730000  
O 19.6920000   15.0660000   24.4780000  
C 19.0010000   16.1570000   24.1180000  
O 19.1360000   17.2190000   24.7150000  
O 14.0180000   17.3510000   19.0370000  
O 14.1010000   14.5100000   18.9140000  
H 18.4340000   14.0240000   21.9720000  
H 19.4880000   14.4140000   23.8240000  
H 16.8240000   17.6860000   23.3460000  
H 13.2110000   17.6660000   19.5160000  
H 13.4200000   15.0600000   18.6340000  
C 15.0070000   18.7210000   21.3900000  
C 15.6390000   19.8530000   20.7990000  
C 15.4310000   21.1180000   21.1870000  
C 14.6930000   21.3810000   22.3540000  
C 14.0150000   20.2790000   23.0040000  
C 14.2220000   18.9720000   22.5260000  
C 16.6430000   19.9780000   19.7460000  
C 16.9700000   21.3390000   19.6340000  
N 16.2050000   22.0780000   20.5410000  
O 18.9030000   20.8900000   18.2600000  
C 18.1310000   21.8240000   18.9120000  
O 18.5090000   22.9600000   18.8160000  
O 13.3350000   20.5140000   24.1000000  
O 13.7470000   17.9130000   23.2890000  
H 17.1230000   19.2490000   19.1890000  
H 18.5880000   20.0420000   18.5540000  
H 16.1730000   23.0750000   20.6660000  
H 12.9430000   21.4920000   24.0130000  
H 13.3160000   18.3640000   24.0370000  
C 14.6730000   22.7550000   22.9090000  
C 13.4660000   23.4210000   23.1170000  
C 13.3930000   24.6000000   23.8550000  
C 14.5070000   25.2070000   24.2810000  
C 15.7710000   24.5610000   24.1780000  
C 15.8740000   23.2990000   23.4700000  
C 12.1030000   23.0670000   22.7510000  
C 11.3270000   24.0110000   23.3740000  
N 12.0860000   25.0270000   23.9380000  
O  9.2650000   22.9640000   22.7200000  
C  9.8370000   24.0120000   23.3520000  
O  9.1330000   24.8780000   23.7510000  
O 16.9260000   25.1160000   24.7040000  
O 17.0120000   22.5600000   23.4290000  
H 11.7110000   22.3420000   21.9890000  
H 10.0270000   22.4750000   22.2490000  
H 11.8000000   25.9440000   24.3130000  
H 17.6790000   24.5330000   24.6370000  
H 16.8150000   21.7660000   22.9060000  
H 14.3910000   26.1140000   24.8870000  
