78
010 
C  8.3890000   16.9880000   20.3040000  
C  7.6490000   18.1860000   20.3640000  
C  8.3920000   19.3100000   20.6330000  
C  9.7190000   19.2790000   20.7230000  
C 10.5240000   18.1320000   20.6870000  
C  9.8120000   16.9220000   20.4490000  
C  8.0120000   20.7580000   20.7790000  
C  9.2450000   21.4450000   20.8730000  
N 10.2990000   20.5280000   20.8280000  
O  8.1490000   23.5740000   20.7890000  
C  9.3410000   22.9400000   20.8750000  
O 10.4000000   23.5720000   21.0630000  
O 10.3660000   15.6760000   20.4470000  
O  7.6560000   15.8250000   20.0360000  
H  6.5870000   18.1460000   20.1440000  
H  7.0250000   21.1660000   20.8830000  
H  7.5360000   22.8160000   20.7480000  
H 11.3330000   20.6640000   20.9080000  
H 11.2830000   15.9750000   20.4110000  
H  8.3050000   15.0700000   20.1670000  
C 11.9980000   18.0650000   20.9950000  
C 12.4390000   18.5420000   22.2420000  
C 13.7620000   18.5700000   22.6010000  
C 14.8370000   18.1230000   21.7670000  
C 14.3370000   17.5760000   20.5110000  
C 13.0150000   17.5820000   20.1270000  
C 11.6910000   19.0510000   23.4480000  
C 12.6910000   19.3280000   24.4040000  
N 13.9490000   19.0840000   23.8690000  
O 11.1090000   20.0940000   25.8840000  
C 12.4080000   19.7590000   25.7610000  
O 13.1590000   19.8770000   26.7310000  
O 15.2990000   17.2460000   19.6330000  
O 12.6590000   16.9310000   18.9630000  
H 10.6230000   19.1240000   23.6020000  
H 10.7790000   19.8070000   25.0160000  
H 14.7100000   19.1550000   24.4600000  
H 16.1390000   17.3610000   20.0980000  
H 13.4920000   16.5080000   18.5860000  
C 16.2940000   17.9730000   22.2210000  
C 17.0290000   16.7810000   22.1170000  
C 18.4060000   16.7670000   22.3180000  
C 19.1120000   17.8820000   22.6930000  
C 18.4230000   19.0480000   22.8520000  
C 17.0250000   19.0780000   22.7220000  
C 16.6450000   15.4380000   21.8170000  
C 17.8150000   14.6880000   21.6200000  
N 18.9230000   15.5210000   21.9650000  
O 16.8230000   12.8700000   20.5120000  
C 18.0030000   13.3580000   20.9570000  
O 19.0460000   12.6810000   20.8720000  
O 19.1050000   20.2190000   23.3010000  
O 16.3480000   20.2320000   23.0620000  
H 15.6630000   15.0910000   21.5270000  
H 16.1670000   13.5850000   20.7300000  
H 19.8770000   15.2620000   21.9320000  
H 20.0880000   20.0170000   23.2050000  
H 16.9380000   20.9720000   23.2300000  
C 20.5430000   17.6270000   23.0870000  
C 21.5140000   17.4930000   22.1200000  
C 22.8440000   17.4620000   22.3620000  
C 23.3430000   17.4790000   23.6610000  
C 22.3840000   17.6310000   24.6940000  
C 21.0250000   17.8280000   24.4160000  
C 21.4050000   17.3360000   20.6650000  
C 22.6820000   17.2660000   20.1860000  
N 23.6020000   17.3070000   21.2300000  
O 21.9850000   17.4080000   17.9330000  
C 23.0070000   17.1350000   18.7640000  
O 24.1610000   17.0960000   18.4320000  
O 22.9050000   17.5190000   25.9760000  
O 20.0520000   17.9560000   25.3730000  
H 20.5130000   17.2740000   20.1180000  
H 21.3320000   17.6250000   18.5860000  
H 24.6170000   17.4280000   21.1910000  
H 22.1810000   17.4140000   26.6010000  
H 19.3450000   18.3300000   24.9650000  
H 24.3740000   17.3030000   23.9680000  
