78
010 
C  8.4180000   18.8760000   23.8990000  
C  7.4940000   18.9480000   22.8540000  
C  8.0570000   18.9450000   21.5490000  
C  9.4290000   18.8220000   21.3720000  
C 10.3370000   18.5570000   22.3790000  
C  9.8110000   18.5820000   23.7150000  
C  7.4820000   19.1400000   20.2510000  
C  8.5020000   19.2460000   19.3670000  
N  9.7270000   18.9520000   20.0040000  
O  7.1120000   19.4520000   17.5420000  
C  8.3720000   19.4600000   17.9290000  
O  9.3200000   19.4330000   17.1500000  
O 10.5370000   18.2330000   24.7990000  
O  8.0410000   19.1760000   25.1820000  
H  6.4690000   19.2350000   23.1280000  
H  6.4000000   19.2260000   20.0870000  
H  6.5700000   19.5250000   18.3700000  
H 10.6600000   19.1460000   19.5390000  
H 11.4080000   17.9120000   24.5210000  
H  8.8370000   19.1360000   25.7540000  
C 11.8950000   18.5940000   22.1710000  
C 12.8040000   19.4250000   22.8470000  
C 14.2020000   19.3140000   22.6310000  
C 14.8370000   18.4950000   21.7120000  
C 13.9110000   17.7270000   21.0080000  
C 12.5380000   17.7170000   21.2280000  
C 12.6450000   20.4890000   23.8260000  
C 13.9420000   20.7920000   24.2640000  
N 14.9430000   20.0810000   23.5460000  
O 13.1360000   22.4250000   25.8410000  
C 14.2330000   21.7240000   25.3520000  
O 15.3250000   21.9730000   25.8210000  
O 14.3310000   16.7690000   20.1380000  
O 11.7130000   16.7090000   20.6520000  
H 11.7220000   20.8770000   24.2680000  
H 12.3500000   22.0610000   25.3380000  
H 15.9020000   20.2460000   23.5450000  
H 13.5660000   16.6720000   19.4970000  
H 10.7940000   16.8010000   20.9070000  
C 16.3240000   18.3180000   21.5560000  
C 16.9510000   17.0800000   21.9160000  
C 18.3050000   16.9910000   21.8630000  
C 19.1500000   18.0530000   21.6840000  
C 18.6520000   19.2800000   21.3550000  
C 17.2640000   19.4160000   21.2100000  
C 16.4750000   15.7990000   22.4160000  
C 17.5980000   14.9800000   22.6140000  
N 18.7260000   15.7730000   22.3120000  
O 16.4050000   13.0010000   23.2530000  
C 17.6050000   13.5820000   23.1820000  
O 18.6320000   13.0270000   23.4410000  
O 19.3350000   20.4100000   21.0750000  
O 16.7380000   20.6230000   20.9080000  
H 15.4200000   15.5640000   22.6320000  
H 15.7890000   13.6930000   22.7810000  
H 19.6780000   15.5470000   22.5880000  
H 20.2740000   20.2390000   21.2600000  
H 17.5160000   21.2030000   20.6850000  
C 20.6220000   17.8840000   21.8830000  
C 21.4600000   17.0310000   21.1160000  
C 22.8030000   16.8950000   21.3690000  
C 23.4820000   17.6610000   22.3830000  
C 22.6320000   18.4920000   23.2040000  
C 21.2470000   18.5330000   22.9710000  
C 21.2080000   16.2590000   19.8740000  
C 22.3980000   15.5940000   19.5550000  
N 23.4330000   16.1370000   20.3390000  
O 21.5010000   14.2200000   17.9620000  
C 22.6570000   14.5080000   18.5880000  
O 23.6990000   13.9280000   18.4040000  
O 23.0850000   19.2450000   24.2500000  
O 20.4960000   19.3830000   23.7090000  
H 20.2860000   16.1770000   19.3010000  
H 20.8790000   14.7880000   18.4200000  
H 24.3960000   15.9000000   20.2560000  
H 22.3680000   19.7240000   24.6090000  
H 19.5780000   19.2700000   23.4950000  
H 24.5650000   17.7250000   22.4630000  
