78
010 
C  9.0800000   15.2710000   19.6620000  
C  9.2850000   14.6420000   18.3960000  
C 10.4710000   14.7630000   17.7390000  
C 11.5360000   15.3120000   18.3890000  
C 11.4540000   16.1050000   19.5500000  
C 10.1830000   16.0080000   20.2320000  
C 10.8390000   14.1070000   16.5080000  
C 12.1610000   14.4180000   16.4130000  
N 12.6700000   15.1040000   17.5430000  
O 12.4060000   13.3230000   14.2480000  
C 13.0180000   13.8940000   15.3050000  
O 14.2090000   14.0090000   15.2780000  
O 10.0560000   16.5010000   21.5230000  
O  7.9110000   15.1800000   20.2660000  
H  8.5610000   14.0470000   17.9270000  
H 10.2230000   13.7060000   15.6940000  
H 11.4560000   13.4590000   14.4320000  
H 13.6370000   15.3530000   17.8030000  
H 10.9610000   16.5610000   21.8160000  
H  7.9880000   15.5780000   21.1430000  
C 12.7240000   16.6520000   20.1450000  
C 13.3900000   17.7820000   19.6400000  
C 14.4800000   18.2470000   20.3460000  
C 15.0460000   17.6670000   21.4250000  
C 14.5520000   16.4360000   21.8120000  
C 13.3780000   15.9240000   21.2490000  
C 13.0810000   18.7640000   18.5980000  
C 14.0560000   19.7790000   18.7230000  
N 14.8910000   19.4850000   19.8490000  
O 13.1780000   21.0040000   16.9710000  
C 14.2550000   20.9030000   17.8030000  
O 15.2390000   21.5620000   17.7020000  
O 15.1310000   15.8150000   22.8800000  
O 12.7380000   14.8390000   21.7510000  
H 12.3450000   18.6740000   17.7810000  
H 12.6200000   20.2930000   17.3820000  
H 15.7280000   20.1030000   20.1580000  
H 15.7320000   16.5130000   23.2190000  
H 13.4170000   14.4560000   22.4130000  
C 16.0680000   18.4210000   22.2090000  
C 15.8470000   18.6520000   23.6190000  
C 16.8360000   19.2420000   24.3560000  
C 18.0080000   19.7590000   23.8340000  
C 18.2350000   19.4660000   22.5060000  
C 17.3210000   18.7280000   21.7360000  
C 14.7530000   18.3860000   24.4560000  
C 15.1400000   18.8140000   25.6960000  
N 16.3820000   19.4110000   25.6520000  
O 13.1610000   18.1270000   26.7350000  
C 14.3670000   18.6050000   26.9570000  
O 14.8040000   18.8330000   28.0720000  
O 19.3980000   19.9380000   22.0040000  
O 17.5840000   18.4780000   20.4120000  
H 13.8440000   17.8350000   24.2600000  
H 13.2060000   18.0110000   25.7930000  
H 17.0140000   19.5950000   26.4070000  
H 19.9310000   20.2770000   22.7130000  
H 18.4760000   18.9200000   20.3180000  
C 19.0030000   20.4560000   24.6880000  
C 20.2950000   19.9040000   25.0490000  
C 21.1780000   20.6330000   25.8250000  
C 20.8780000   21.8980000   26.3350000  
C 19.7250000   22.4930000   25.8160000  
C 18.7960000   21.8060000   24.9780000  
C 20.9310000   18.6030000   24.6950000  
C 22.1900000   18.6390000   25.2820000  
N 22.3230000   19.8020000   26.0520000  
O 22.6110000   16.4030000   24.7020000  
C 23.1530000   17.5130000   25.2630000  
O 24.2690000   17.4260000   25.7530000  
O 19.4440000   23.7660000   26.2870000  
O 17.6410000   22.4810000   24.5120000  
H 20.4850000   17.7940000   24.0580000  
H 21.7180000   16.6260000   24.3720000  
H 23.1320000   20.0020000   26.7180000  
H 18.4800000   23.8260000   26.2570000  
H 17.1680000   21.8290000   24.0290000  
H 21.5620000   22.5110000   27.0010000  
