78
010 
C  8.2190000   16.3410000   21.6040000  
C  7.7010000   17.1860000   20.5480000  
C  8.6400000   18.1490000   19.9420000  
C  9.9320000   18.1600000   20.4140000  
C 10.4570000   17.3880000   21.4610000  
C  9.5590000   16.4020000   22.0660000  
C  8.3310000   19.3530000   19.2100000  
C  9.5510000   20.0630000   19.2750000  
N 10.5550000   19.2490000   19.8940000  
O  8.7350000   21.8630000   18.0070000  
C  9.8010000   21.4110000   18.7110000  
O 10.9140000   21.9460000   18.7560000  
O  9.9660000   15.7070000   23.1540000  
O  7.2920000   15.5180000   22.1440000  
H  6.6240000   17.0210000   20.2310000  
H  7.3080000   19.5470000   18.8860000  
H  8.0540000   21.2150000   18.0940000  
H 11.5030000   19.5780000   20.1540000  
H 10.9090000   15.5060000   22.9660000  
H  7.7180000   14.9930000   22.8890000  
C 11.9400000   17.5020000   21.8130000  
C 12.5490000   18.7280000   22.1910000  
C 13.8820000   18.8250000   22.3560000  
C 14.8240000   17.7950000   22.1640000  
C 14.2050000   16.5180000   21.7360000  
C 12.8210000   16.3880000   21.6130000  
C 12.1090000   20.0920000   22.2630000  
C 13.1990000   20.9030000   22.5070000  
N 14.2840000   20.1020000   22.5860000  
O 12.0600000   22.9730000   22.6360000  
C 13.1920000   22.3210000   22.7230000  
O 14.2030000   22.9630000   22.9540000  
O 15.0010000   15.4550000   21.3330000  
O 12.4500000   15.1330000   21.2490000  
H 11.0820000   20.4850000   22.3040000  
H 11.4560000   22.2870000   22.3710000  
H 15.2390000   20.3000000   22.7870000  
H 14.4190000   14.7480000   21.0780000  
H 11.5100000   15.0640000   21.2220000  
C 16.2920000   18.0210000   22.1650000  
C 17.1220000   17.6190000   23.2410000  
C 18.4590000   17.8530000   23.1810000  
C 19.0490000   18.5310000   22.0870000  
C 18.2570000   18.9510000   21.0270000  
C 16.8650000   18.7200000   21.0990000  
C 16.9560000   16.9340000   24.5000000  
C 18.2260000   16.7320000   25.0920000  
N 19.1680000   17.1800000   24.1620000  
O 17.4190000   15.8790000   27.1710000  
C 18.5070000   16.1470000   26.4220000  
O 19.6530000   15.9880000   26.8600000  
O 18.6710000   19.4750000   19.8690000  
O 15.9810000   19.2710000   20.1880000  
H 16.0170000   16.6440000   24.9260000  
H 16.6950000   16.0240000   26.4740000  
H 20.1350000   17.0690000   24.1610000  
H 19.6740000   19.6070000   19.9890000  
H 16.4750000   19.4670000   19.3960000  
C 20.5210000   18.4420000   21.9720000  
C 21.1930000   17.2310000   21.8100000  
C 22.5060000   17.1600000   21.4230000  
C 23.3200000   18.3280000   21.2590000  
C 22.7320000   19.5210000   21.5660000  
C 21.3600000   19.5990000   21.9630000  
C 20.6370000   15.8660000   21.7520000  
C 21.6930000   15.1090000   21.3400000  
N 22.8630000   15.8620000   21.1300000  
O 20.1550000   13.2000000   21.1780000  
C 21.4510000   13.6100000   21.1410000  
O 22.3440000   12.8120000   20.9420000  
O 23.5650000   20.6370000   21.5240000  
O 20.7610000   20.7750000   22.2840000  
H 19.5810000   15.5800000   21.7860000  
H 19.6340000   13.9590000   21.4260000  
H 23.6770000   15.4950000   20.8250000  
H 22.9120000   21.3240000   21.6690000  
H 19.8020000   20.6130000   22.3160000  
H 24.4210000   18.2560000   21.0600000  
