78
010 
C 18.5250000   16.8280000   28.2890000  
C 18.6250000   15.4910000   28.7280000  
C 18.3240000   14.5000000   27.8040000  
C 17.7330000   14.7860000   26.6010000  
C 17.7160000   16.1030000   26.1010000  
C 18.1340000   17.1600000   26.9540000  
C 18.3200000   13.0320000   27.8680000  
C 17.6950000   12.6040000   26.7190000  
N 17.3660000   13.6960000   25.9190000  
O 18.0470000   10.3940000   27.1710000  
C 17.5010000   11.2240000   26.2940000  
O 16.9040000   10.8280000   25.3170000  
O 18.0520000   18.3870000   26.4500000  
O 18.9790000   17.7740000   29.1920000  
H 19.0640000   15.3210000   29.7000000  
H 18.8130000   12.5510000   28.7230000  
H 18.6350000   11.0660000   27.6930000  
H 17.0180000   13.7560000   24.9380000  
H 17.6660000   18.1780000   25.6160000  
H 18.8110000   18.6550000   28.8620000  
C 17.1090000   16.4190000   24.6630000  
C 15.7440000   16.6390000   24.5490000  
C 15.1150000   17.1850000   23.4730000  
C 15.8000000   17.4430000   22.2920000  
C 17.2060000   17.1960000   22.3220000  
C 17.8610000   16.7530000   23.4980000  
C 14.7240000   16.4810000   25.6180000  
C 13.5350000   16.9280000   25.0200000  
N 13.7750000   17.3530000   23.7130000  
O 12.1140000   16.3730000   26.9100000  
C 12.2480000   17.0800000   25.7670000  
O 11.4010000   17.8010000   25.3000000  
O 18.0350000   17.5210000   21.2720000  
O 19.2700000   16.7360000   23.7030000  
H 14.8410000   16.1030000   26.6020000  
H 12.8440000   15.6970000   26.9050000  
H 13.0520000   17.6890000   23.0890000  
H 18.9730000   17.3270000   21.4640000  
H 19.4080000   16.3240000   24.5790000  
C 15.0710000   18.0470000   21.0720000  
C 15.1650000   19.4150000   20.7860000  
C 14.5460000   19.8890000   19.6670000  
C 13.7840000   19.1590000   18.7230000  
C 13.5490000   17.7810000   19.0970000  
C 14.2070000   17.2320000   20.2500000  
C 15.9130000   20.4230000   21.3670000  
C 15.7090000   21.5530000   20.6450000  
N 14.9350000   21.2000000   19.5090000  
O 17.0540000   22.8070000   22.1540000  
C 16.3280000   22.8440000   20.9720000  
O 16.2500000   23.8390000   20.2920000  
O 12.6530000   17.0400000   18.3570000  
O 14.0080000   15.8930000   20.5980000  
H 16.5590000   20.2850000   22.2320000  
H 16.8100000   21.9450000   22.5930000  
H 14.7610000   21.8790000   18.7700000  
H 12.1960000   17.7430000   17.7390000  
H 13.6600000   15.4520000   19.8300000  
C 13.2670000   19.8180000   17.4590000  
C 14.1420000   20.4670000   16.5590000  
C 13.6990000   21.0550000   15.3430000  
C 12.3770000   21.2160000   15.1560000  
C 11.4360000   20.6400000   16.0460000  
C 11.8990000   19.9270000   17.1790000  
C 15.5610000   20.5200000   16.4620000  
C 15.9250000   21.3160000   15.3760000  
N 14.7520000   21.6460000   14.6810000  
O 18.3080000   20.9650000   15.5310000  
C 17.2650000   21.6830000   14.9680000  
O 17.4540000   22.4890000   14.0610000  
O 10.0790000   20.8290000   15.7320000  
O 10.9280000   19.4190000   18.0360000  
H 16.3490000   20.0670000   17.1720000  
H 17.9500000   20.5760000   16.3040000  
H 14.7410000   22.2370000   13.8740000  
H  9.6340000   20.6360000   16.5540000  
H 11.3090000   19.1450000   18.8690000  
H 12.0380000   21.7920000   14.2880000  
