78
010 
C 14.5370000   12.5350000   17.2490000  
C 14.7200000   11.2440000   17.7200000  
C 14.9870000   11.1070000   19.0940000  
C 15.1570000   12.2230000   19.8650000  
C 15.0530000   13.5490000   19.4770000  
C 14.7920000   13.7040000   18.0770000  
C 15.2690000    9.9730000   19.9760000  
C 15.4410000   10.5040000   21.2580000  
N 15.4720000   11.8970000   21.1570000  
O 15.2510000    8.4320000   22.4520000  
C 15.5470000    9.7650000   22.5230000  
O 15.7700000   10.2380000   23.6240000  
O 14.6270000   14.9600000   17.5840000  
O 13.9420000   12.7230000   16.0120000  
H 14.5550000   10.3190000   17.1330000  
H 15.0080000    8.9250000   19.8700000  
H 15.2760000    8.3430000   21.4590000  
H 15.4680000   12.6110000   21.8720000  
H 14.8130000   15.6270000   18.2890000  
H 13.8840000   13.6950000   15.8810000  
C 15.3420000   14.7640000   20.3200000  
C 16.4690000   15.5630000   20.0960000  
C 16.6070000   16.7560000   20.7760000  
C 15.8030000   17.2240000   21.7990000  
C 14.7840000   16.3420000   22.1180000  
C 14.5250000   15.1340000   21.3980000  
C 17.5350000   15.4790000   19.1030000  
C 18.2860000   16.6820000   19.2710000  
N 17.6810000   17.4470000   20.3160000  
O 19.6330000   16.6830000   17.3610000  
C 19.3330000   17.2840000   18.5630000  
O 19.9610000   18.2680000   18.9690000  
O 13.9180000   16.6830000   23.0870000  
O 13.4580000   14.4070000   21.8020000  
H 17.7280000   14.6680000   18.3900000  
H 18.9730000   15.9650000   17.2320000  
H 17.8890000   18.4040000   20.4370000  
H 14.4910000   16.7890000   23.8310000  
H 13.1950000   14.8220000   22.6710000  
C 16.0430000   18.4470000   22.5360000  
C 15.5880000   19.6140000   21.9690000  
C 15.7520000   20.7580000   22.6550000  
C 16.3280000   20.9610000   23.9370000  
C 16.6910000   19.7360000   24.5110000  
C 16.6430000   18.5340000   23.7710000  
C 14.9000000   19.9730000   20.7350000  
C 14.6430000   21.3480000   20.8000000  
N 15.2920000   21.8550000   21.9500000  
O 13.2390000   21.5700000   18.9290000  
C 13.8140000   22.1980000   19.9410000  
O 13.8190000   23.3960000   19.9890000  
O 17.1090000   19.7170000   25.8220000  
O 17.1960000   17.3660000   24.3350000  
H 14.3130000   19.2470000   20.1380000  
H 13.3680000   20.6190000   19.0360000  
H 15.3140000   22.8420000   22.2740000  
H 17.0260000   20.5670000   26.1210000  
H 17.5430000   17.6650000   25.2160000  
C 16.4250000   22.2210000   24.7540000  
C 15.2320000   22.9710000   24.9750000  
C 15.2510000   24.2200000   25.5750000  
C 16.4510000   24.6620000   26.1060000  
C 17.6250000   23.9940000   25.9040000  
C 17.6570000   22.7520000   25.2670000  
C 13.9200000   22.7950000   24.4180000  
C 13.1430000   23.9390000   24.7040000  
N 14.0040000   24.7930000   25.4630000  
O 11.2150000   23.6260000   23.2260000  
C 11.7820000   24.3760000   24.2390000  
O 11.2920000   25.4100000   24.6420000  
O 18.8060000   24.5100000   26.2780000  
O 18.8050000   22.0340000   25.0950000  
H 13.6460000   21.9190000   23.8790000  
H 11.8930000   23.0010000   22.9890000  
H 13.6640000   25.5710000   26.0050000  
H 19.4950000   23.9680000   25.8680000  
H 18.5470000   21.1780000   24.7290000  
H 16.4290000   25.6210000   26.6160000  
