78
010 
C 16.1230000   17.8760000   29.2590000  
C 17.2310000   17.1220000   29.7240000  
C 18.0550000   16.5410000   28.7480000  
C 17.8930000   16.8470000   27.4050000  
C 16.8500000   17.6540000   26.9270000  
C 15.9570000   18.1610000   27.8510000  
C 19.0280000   15.5450000   28.7150000  
C 19.4680000   15.2850000   27.3820000  
N 18.6600000   16.0700000   26.5260000  
O 21.0210000   13.6240000   27.8700000  
C 20.5690000   14.3880000   26.9710000  
O 21.0290000   14.3370000   25.8650000  
O 14.7760000   18.7840000   27.3730000  
O 15.1620000   18.2640000   30.1080000  
H 17.2980000   16.7350000   30.7650000  
H 19.4160000   15.0710000   29.5790000  
H 20.6630000   13.7690000   28.7680000  
H 18.7730000   16.1200000   25.5020000  
H 14.9370000   19.1590000   26.4770000  
H 14.4170000   18.5170000   29.5340000  
C 16.6440000   17.9100000   25.4860000  
C 15.7810000   17.0860000   24.7930000  
C 15.5100000   17.2430000   23.4210000  
C 16.1700000   18.1450000   22.6130000  
C 17.2260000   18.8610000   23.2370000  
C 17.4770000   18.6990000   24.6790000  
C 14.9320000   16.0160000   25.1630000  
C 14.2720000   15.5580000   23.9950000  
N 14.6010000   16.3840000   22.9130000  
O 12.8720000   13.8860000   25.1660000  
C 13.1860000   14.4880000   23.9520000  
O 12.4990000   14.3660000   22.9220000  
O 18.0040000   19.7050000   22.4950000  
O 18.5320000   19.2900000   25.3040000  
H 14.7090000   15.6270000   26.2240000  
H 13.3290000   14.3100000   25.9130000  
H 14.1170000   16.4470000   22.0490000  
H 18.3060000   20.3560000   23.1850000  
H 18.6780000   18.7320000   26.0710000  
C 15.8120000   18.2020000   21.0960000  
C 14.7140000   18.9930000   20.6880000  
C 14.4400000   19.0670000   19.3640000  
C 15.0330000   18.2860000   18.3120000  
C 16.1780000   17.5660000   18.7300000  
C 16.5290000   17.5160000   20.1110000  
C 13.7030000   19.7670000   21.3940000  
C 12.8350000   20.2130000   20.3810000  
N 13.2550000   19.7240000   19.1560000  
O 11.2280000   21.3060000   21.7970000  
C 11.5660000   20.8830000   20.5640000  
O 10.7490000   20.9790000   19.7160000  
O 16.8590000   16.7790000   17.8120000  
O 17.7020000   16.8600000   20.5360000  
H 13.5480000   19.9790000   22.4330000  
H 11.9940000   21.2850000   22.3650000  
H 12.7270000   19.7540000   18.3010000  
H 16.4430000   16.8380000   17.0000000  
H 18.2850000   16.6870000   19.8110000  
C 14.5730000   18.3020000   16.9250000  
C 14.6980000   19.5080000   16.1640000  
C 14.3680000   19.5460000   14.8250000  
C 13.8390000   18.3870000   14.1720000  
C 13.7050000   17.1990000   14.9460000  
C 14.1880000   17.1570000   16.2620000  
C 15.1850000   20.8590000   16.5090000  
C 14.9600000   21.7290000   15.4310000  
N 14.4660000   20.8570000   14.3860000  
O 15.5780000   23.6560000   16.5320000  
C 15.0670000   23.1670000   15.3880000  
O 14.7120000   23.8010000   14.3990000  
O 13.1030000   16.0530000   14.4540000  
O 14.1330000   15.9510000   16.9260000  
H 15.5200000   21.0900000   17.5520000  
H 15.6570000   22.8730000   17.0380000  
H 14.1150000   21.1670000   13.5160000  
H 13.0630000   15.5490000   15.2380000  
H 14.6520000   16.0540000   17.7570000  
H 13.4410000   18.4420000   13.1160000  
