78
010 
C 18.6090000   17.6650000   28.8420000  
C 18.9420000   16.3370000   28.8600000  
C 18.7260000   15.5300000   27.7330000  
C 18.1630000   16.0420000   26.6350000  
C 17.7770000   17.3960000   26.5360000  
C 18.0310000   18.1550000   27.7000000  
C 19.0430000   14.1610000   27.4350000  
C 18.6460000   13.9220000   26.0530000  
N 18.2660000   15.1730000   25.5290000  
O 18.9770000   11.5700000   26.2700000  
C 18.6110000   12.5560000   25.4060000  
O 18.2420000   12.3330000   24.2780000  
O 17.6330000   19.4050000   27.6630000  
O 18.7420000   18.4470000   30.0270000  
H 19.3300000   15.8740000   29.7350000  
H 19.1130000   13.4000000   28.2590000  
H 19.1200000   11.9270000   27.1550000  
H 18.0020000   15.4580000   24.6240000  
H 17.2640000   19.5030000   26.7850000  
H 18.3220000   19.2680000   30.0410000  
C 17.1260000   17.9000000   25.3040000  
C 16.0050000   17.1760000   24.8390000  
C 15.5740000   17.4730000   23.6350000  
C 16.1350000   18.3950000   22.6990000  
C 17.2600000   19.1310000   23.2030000  
C 17.7850000   18.8160000   24.4680000  
C 15.2590000   15.9890000   25.2300000  
C 14.3740000   15.5900000   24.2160000  
N 14.5610000   16.5930000   23.2620000  
O 13.3920000   13.6150000   25.1700000  
C 13.4680000   14.4290000   24.0940000  
O 12.7380000   14.3680000   23.1120000  
O 17.9100000   19.9790000   22.3720000  
O 18.9830000   19.3370000   24.8530000  
H 15.4210000   15.4780000   26.2370000  
H 14.2210000   13.8440000   25.6610000  
H 14.0310000   16.6450000   22.4650000  
H 18.3820000   20.4750000   23.0360000  
H 19.1860000   19.0250000   25.7840000  
C 15.5150000   18.5070000   21.3280000  
C 14.1620000   18.8780000   21.1310000  
C 13.6840000   19.0330000   19.8580000  
C 14.4580000   18.9480000   18.6860000  
C 15.8040000   18.4260000   18.8810000  
C 16.3400000   18.2400000   20.1920000  
C 13.0530000   19.0390000   22.0540000  
C 11.9540000   19.3490000   21.2490000  
N 12.3110000   19.3680000   19.8950000  
O 10.3040000   19.4230000   22.9560000  
C 10.5340000   19.6130000   21.6670000  
O  9.6600000   20.0830000   21.0090000  
O 16.5720000   18.2980000   17.7460000  
O 17.6960000   18.0250000   20.3360000  
H 13.0340000   19.0410000   23.1360000  
H 11.1640000   18.8680000   23.1980000  
H 11.7090000   19.5610000   19.1120000  
H 15.9690000   18.6010000   16.9770000  
H 18.0910000   17.8780000   19.4220000  
C 13.9020000   19.2060000   17.2800000  
C 14.5050000   20.2040000   16.4650000  
C 14.0400000   20.5240000   15.1960000  
C 12.8730000   19.9680000   14.7160000  
C 12.1940000   18.9720000   15.4940000  
C 12.7810000   18.5830000   16.7480000  
C 15.6280000   21.0510000   16.7070000  
C 15.8120000   21.8940000   15.5970000  
N 14.7890000   21.5570000   14.7250000  
O 17.5960000   23.2200000   16.4350000  
C 16.8780000   22.9130000   15.3270000  
O 17.1090000   23.5950000   14.2930000  
O 11.1300000   18.3260000   14.9770000  
O 12.1320000   17.6290000   17.5100000  
H 16.2980000   21.0920000   17.5830000  
H 17.3100000   22.6800000   17.1720000  
H 14.6390000   21.9520000   13.8490000  
H 10.7050000   17.7940000   15.6630000  
H 12.7620000   17.5610000   18.2970000  
H 12.4310000   20.3480000   13.7370000  
