78
010 
C 17.9830000   16.4390000   28.4710000  
C 18.6720000   15.2190000   28.7010000  
C 19.0080000   14.4570000   27.5280000  
C 18.6070000   14.9620000   26.3240000  
C 17.8140000   16.0670000   26.0550000  
C 17.4800000   16.7880000   27.2090000  
C 19.7670000   13.2300000   27.2870000  
C 19.8250000   13.1110000   25.8850000  
N 19.0540000   14.1430000   25.2740000  
O 21.0350000   11.1790000   26.1520000  
C 20.4280000   11.9660000   25.2520000  
O 20.4370000   11.7250000   24.0840000  
O 16.6980000   17.9180000   27.0170000  
O 17.6100000   17.2020000   29.5740000  
H 18.9830000   14.8990000   29.7030000  
H 20.3380000   12.7830000   28.0520000  
H 20.7110000   11.4780000   27.0360000  
H 18.6670000   14.1480000   24.3070000  
H 16.5810000   17.9880000   26.0780000  
H 17.6310000   18.0850000   29.2650000  
C 17.3590000   16.5450000   24.6920000  
C 16.0730000   16.2980000   24.3260000  
C 15.5950000   16.6740000   23.0760000  
C 16.3090000   17.5560000   22.2100000  
C 17.6680000   17.7290000   22.5570000  
C 18.1330000   17.3120000   23.8480000  
C 14.9570000   15.5250000   24.9200000  
C 13.9200000   15.4690000   23.9290000  
N 14.2830000   16.3050000   22.8260000  
O 12.6780000   13.8870000   25.0950000  
C 12.6730000   14.6970000   23.9780000  
O 11.7900000   14.7690000   23.1610000  
O 18.4920000   18.5240000   21.7680000  
O 19.4830000   17.5570000   24.2100000  
H 14.7930000   15.1300000   25.9510000  
H 13.6070000   13.9280000   25.4330000  
H 13.8280000   16.5010000   21.9780000  
H 19.2370000   18.7240000   22.2950000  
H 19.7300000   17.0850000   25.0550000  
C 15.6220000   18.2040000   21.0270000  
C 14.7910000   19.3400000   21.2020000  
C 14.0500000   19.8410000   20.1780000  
C 14.0600000   19.3570000   18.8130000  
C 15.0060000   18.3580000   18.6240000  
C 15.6930000   17.6870000   19.6680000  
C 14.4000000   20.1870000   22.3370000  
C 13.4900000   21.1290000   21.8770000  
N 13.2090000   20.8930000   20.5230000  
O 13.4970000   22.4350000   23.8130000  
C 12.9840000   22.2750000   22.6140000  
O 12.1560000   23.0100000   22.1380000  
O 15.1030000   17.9120000   17.3540000  
O 16.4240000   16.4920000   19.4090000  
H 14.7780000   20.0950000   23.3460000  
H 14.1460000   21.7160000   23.9540000  
H 12.5420000   21.4590000   20.0010000  
H 14.3070000   18.1380000   16.7630000  
H 16.5910000   16.3840000   18.4460000  
C 13.1950000   20.0310000   17.7650000  
C 13.7020000   21.0240000   16.8910000  
C 12.9180000   21.5320000   15.8800000  
C 11.5840000   21.2560000   15.7270000  
C 11.0320000   20.3540000   16.6460000  
C 11.8270000   19.7030000   17.6160000  
C 15.0270000   21.5180000   16.7470000  
C 14.9270000   22.4200000   15.7240000  
N 13.6280000   22.4500000   15.1690000  
O 17.1400000   23.1090000   15.9270000  
C 16.0610000   23.2410000   15.2170000  
O 16.0300000   23.9890000   14.2910000  
O  9.7010000   20.1060000   16.6440000  
O 11.1910000   18.8650000   18.5900000  
H 15.9390000   21.1700000   17.2220000  
H 16.8700000   22.3110000   16.4240000  
H 13.3210000   22.9280000   14.3480000  
H  9.4010000   19.3980000   17.2560000  
H 11.8280000   18.5160000   19.1830000  
H 10.9920000   21.7720000   14.9340000  
