78
010 
C  8.3580000   18.2140000   19.9360000  
C  8.0620000   17.2340000   19.0590000  
C  8.9940000   16.2950000   18.7660000  
C 10.1610000   16.3860000   19.4270000  
C 10.6190000   17.4300000   20.2320000  
C  9.6210000   18.3690000   20.5130000  
C  9.1120000   15.1650000   17.8920000  
C 10.4100000   14.6230000   18.0610000  
N 11.0880000   15.4080000   19.0080000  
O  9.9670000   12.8830000   16.5750000  
C 10.9070000   13.4530000   17.3510000  
O 12.0130000   13.0500000   17.4610000  
O  9.9150000   19.4280000   21.2550000  
O  7.3210000   19.0750000   20.2270000  
H  7.0600000   17.2900000   18.6080000  
H  8.3730000   14.7850000   17.2300000  
H  9.3180000   13.5680000   16.7070000  
H 11.9780000   15.2160000   19.3630000  
H 10.8030000   19.2540000   21.4920000  
H  7.4510000   19.6540000   20.9500000  
C 12.0750000   17.5480000   20.6860000  
C 12.8020000   18.7160000   20.4020000  
C 14.1340000   18.8410000   20.7870000  
C 14.7930000   17.9110000   21.5010000  
C 14.0460000   16.7470000   21.8920000  
C 12.7020000   16.5490000   21.4460000  
C 12.4920000   19.9810000   19.7890000  
C 13.6900000   20.7500000   19.7850000  
N 14.7240000   19.9740000   20.3250000  
O 12.7730000   22.7010000   18.7940000  
C 13.8920000   22.1650000   19.3210000  
O 14.9270000   22.7790000   19.4280000  
O 14.6080000   15.6710000   22.5620000  
O 12.0870000   15.4320000   21.9350000  
H 11.5980000   20.2310000   19.3160000  
H 12.2380000   21.8760000   18.7420000  
H 15.6630000   20.1810000   20.3150000  
H 13.9550000   15.0020000   22.6460000  
H 11.1730000   15.4260000   21.6180000  
C 16.2550000   18.1290000   21.9110000  
C 16.5040000   18.8450000   23.0240000  
C 17.7870000   19.1450000   23.4330000  
C 18.9640000   18.7470000   22.8100000  
C 18.6950000   17.9050000   21.6410000  
C 17.4060000   17.6390000   21.2160000  
C 15.6580000   19.3600000   24.0590000  
C 16.5280000   19.8640000   25.1090000  
N 17.8310000   19.6640000   24.7290000  
O 14.8570000   20.5420000   26.5600000  
C 16.1700000   20.4310000   26.4140000  
O 16.9470000   20.9890000   27.1380000  
O 19.7440000   17.4370000   20.9030000  
O 17.1910000   16.9000000   20.0730000  
H 14.5830000   19.3920000   24.0000000  
H 14.5210000   20.1220000   25.7860000  
H 18.6400000   19.9040000   25.2840000  
H 20.6130000   17.3810000   21.3900000  
H 18.0330000   16.7400000   19.5810000  
C 20.3840000   19.0140000   23.2700000  
C 21.1860000   17.9730000   23.7610000  
C 22.3470000   18.3080000   24.4390000  
C 22.8630000   19.5530000   24.5490000  
C 22.0840000   20.6510000   24.0940000  
C 20.8630000   20.3740000   23.3960000  
C 20.9580000   16.5660000   23.9590000  
C 21.9630000   16.0560000   24.7940000  
N 22.8080000   17.1880000   25.0750000  
O 21.2290000   13.7910000   24.8710000  
C 22.2510000   14.6540000   25.0740000  
O 23.3430000   14.2810000   25.4500000  
O 22.6810000   21.8970000   24.1890000  
O 20.1310000   21.4610000   22.9390000  
H 20.2220000   15.9480000   23.5290000  
H 20.5020000   14.3600000   24.5390000  
H 23.5580000   17.1510000   25.7690000  
H 22.2580000   22.5920000   23.6390000  
H 19.2920000   21.1980000   22.5200000  
H 23.7660000   19.8170000   25.1090000  
