78
010 
C 14.3370000   13.9300000   15.7150000  
C 13.9770000   12.6300000   16.1020000  
C 13.9700000   12.3820000   17.4590000  
C 14.2180000   13.3290000   18.3870000  
C 14.5730000   14.6880000   18.1080000  
C 14.5690000   14.9780000   16.6930000  
C 13.5940000   11.2020000   18.2350000  
C 13.7020000   11.5340000   19.5740000  
N 14.0850000   12.9020000   19.6900000  
O 13.0130000    9.4520000   20.4740000  
C 13.4990000   10.6850000   20.7620000  
O 13.6300000   11.0600000   21.9320000  
O 14.7730000   16.2590000   16.2180000  
O 14.4590000   14.2640000   14.4070000  
H 13.8040000   11.9090000   15.2980000  
H 13.4040000   10.1930000   17.8920000  
H 12.7090000    9.5900000   19.5860000  
H 14.2090000   13.5040000   20.4970000  
H 15.1700000   16.8280000   16.9590000  
H 14.0030000   15.1060000   14.2300000  
C 14.8030000   15.6920000   19.1740000  
C 16.1350000   15.9630000   19.5540000  
C 16.3290000   16.8340000   20.5510000  
C 15.2960000   17.4770000   21.3440000  
C 13.9590000   17.1440000   21.0200000  
C 13.7670000   16.2450000   19.9620000  
C 17.4420000   15.5220000   19.1260000  
C 18.3790000   16.3380000   19.8260000  
N 17.6630000   17.1560000   20.7060000  
O 20.2690000   15.7660000   18.5290000  
C 19.8710000   16.4530000   19.6410000  
O 20.5720000   17.1910000   20.2860000  
O 12.8620000   17.7120000   21.6630000  
O 12.3960000   15.8230000   19.7650000  
H 17.5650000   14.6900000   18.4710000  
H 19.4170000   15.3170000   18.3160000  
H 17.9660000   17.7160000   21.5110000  
H 13.1060000   18.1420000   22.5790000  
H 12.3690000   15.1600000   19.0330000  
C 15.6720000   18.4280000   22.4740000  
C 16.2340000   19.6120000   22.2160000  
C 16.4800000   20.4890000   23.2210000  
C 16.1770000   20.2070000   24.5570000  
C 15.4060000   19.0560000   24.8050000  
C 15.2060000   18.0980000   23.8010000  
C 16.7090000   20.2330000   21.0000000  
C 17.1820000   21.4920000   21.3370000  
N 16.9630000   21.6800000   22.7090000  
O 17.9540000   22.1560000   19.1710000  
C 17.7770000   22.5070000   20.4050000  
O 18.1020000   23.6360000   20.6810000  
O 15.0700000   18.7520000   26.1340000  
O 14.5870000   16.9050000   24.0790000  
H 16.9650000   19.6960000   20.1090000  
H 17.7190000   21.1730000   19.2000000  
H 16.9140000   22.5200000   23.2680000  
H 15.4710000   19.4550000   26.6240000  
H 14.2350000   17.0420000   24.9860000  
C 16.5060000   21.1600000   25.6300000  
C 15.5220000   21.9740000   26.1420000  
C 15.7960000   22.9710000   27.0560000  
C 17.0500000   23.2410000   27.5260000  
C 18.1350000   22.4350000   27.0650000  
C 17.8870000   21.4630000   26.0340000  
C 14.0740000   21.9670000   25.8780000  
C 13.5730000   23.0140000   26.6140000  
N 14.5820000   23.5680000   27.4580000  
O 11.3830000   22.7340000   25.7060000  
C 12.1320000   23.4520000   26.5810000  
O 11.6250000   24.3220000   27.2780000  
O 19.3740000   22.6410000   27.5520000  
O 18.9530000   20.8640000   25.4460000  
H 13.5450000   21.3220000   25.1480000  
H 11.9810000   22.0050000   25.3650000  
H 14.3920000   24.2930000   28.1580000  
H 19.8960000   22.1100000   26.8860000  
H 18.5840000   20.0110000   25.0490000  
H 17.2520000   24.0040000   28.3120000  
