78
010 
C  8.1380000   20.1260000   21.1570000  
C  7.7220000   20.4370000   22.5030000  
C  8.6690000   20.5060000   23.4810000  
C  9.9790000   20.2060000   23.1430000  
C 10.4790000   19.7790000   21.8760000  
C  9.4770000   19.8260000   20.8640000  
C  8.6000000   20.8850000   24.8770000  
C  9.9000000   20.8080000   25.3130000  
N 10.7710000   20.3390000   24.2790000  
O  9.4560000   21.7020000   27.5310000  
C 10.3640000   21.1820000   26.7010000  
O 11.5230000   21.1480000   27.0340000  
O  9.8460000   19.4520000   19.6000000  
O  7.1820000   19.9270000   20.2020000  
H  6.7100000   20.7070000   22.7710000  
H  7.7860000   21.3440000   25.3710000  
H  8.7290000   21.7030000   26.8710000  
H 11.7750000   20.2700000   24.4480000  
H 10.7610000   19.6110000   19.4980000  
H  7.5860000   19.6120000   19.4070000  
C 11.8830000   19.4070000   21.5740000  
C 12.5050000   18.4510000   22.3740000  
C 13.8460000   18.1520000   22.3300000  
C 14.7870000   18.6400000   21.4450000  
C 14.2120000   19.5310000   20.5020000  
C 12.8280000   19.9780000   20.6230000  
C 11.9810000   17.6940000   23.4910000  
C 13.0340000   17.0040000   24.0450000  
N 14.1650000   17.1890000   23.2800000  
O 11.6940000   15.4910000   25.2400000  
C 12.9690000   15.8560000   24.9490000  
O 13.9490000   15.3570000   25.4220000  
O 15.1520000   20.1940000   19.7070000  
O 12.4710000   21.0210000   19.8350000  
H 10.9470000   17.5290000   23.7420000  
H 11.0490000   16.0440000   24.7680000  
H 15.0340000   16.6060000   23.3110000  
H 15.9870000   19.7320000   19.7450000  
H 13.2960000   21.3540000   19.3780000  
C 16.2820000   18.3650000   21.4450000  
C 16.7640000   17.1730000   20.8890000  
C 18.1030000   16.8350000   20.9530000  
C 19.1560000   17.6590000   21.4550000  
C 18.6430000   18.8480000   22.1290000  
C 17.2730000   19.1730000   22.1310000  
C 16.0460000   16.0690000   20.2900000  
C 16.9720000   15.1070000   20.0200000  
N 18.2160000   15.5470000   20.5070000  
O 15.5090000   13.5670000   18.8440000  
C 16.6800000   13.6990000   19.4190000  
O 17.5300000   12.8740000   19.2750000  
O 19.5260000   19.7380000   22.7890000  
O 16.7730000   20.2300000   22.8700000  
H 14.9740000   16.0920000   19.9990000  
H 15.0480000   14.3950000   18.8710000  
H 19.0730000   15.1060000   20.3940000  
H 20.4220000   19.4370000   22.6230000  
H 17.5120000   20.8850000   23.0700000  
C 20.5780000   17.2460000   21.6550000  
C 21.4680000   17.0110000   20.6160000  
C 22.7220000   16.6220000   20.7820000  
C 23.1890000   16.3570000   22.0630000  
C 22.3240000   16.4880000   23.1750000  
C 21.0240000   16.9730000   22.9620000  
C 21.3090000   17.0480000   19.1330000  
C 22.6290000   16.8030000   18.5750000  
N 23.4720000   16.6090000   19.6050000  
O 21.9010000   17.1430000   16.3430000  
C 22.9450000   16.7850000   17.1140000  
O 24.0520000   16.6110000   16.7220000  
O 22.7980000   16.3170000   24.3730000  
O 20.2400000   17.1510000   24.0320000  
H 20.4070000   17.3110000   18.6120000  
H 21.1290000   17.1440000   16.9700000  
H 24.4730000   16.6160000   19.5540000  
H 22.0720000   16.6350000   24.9090000  
H 19.2660000   17.2900000   23.7510000  
H 24.2490000   16.0130000   22.1970000  
