78
010 
C 12.0240000   20.8020000   27.8000000  
C 12.7940000   20.5910000   28.9590000  
C 14.0900000   20.1260000   28.8170000  
C 14.6600000   19.9010000   27.6120000  
C 13.9390000   20.0780000   26.4080000  
C 12.5720000   20.5450000   26.4590000  
C 15.1290000   19.7620000   29.8170000  
C 16.1760000   19.3540000   29.0720000  
N 15.9250000   19.5090000   27.7020000  
O 17.3180000   18.6840000   30.9930000  
C 17.3870000   18.7420000   29.6700000  
O 18.3810000   18.4970000   29.0350000  
O 11.7960000   20.3060000   25.3750000  
O 10.7650000   21.3240000   27.9570000  
H 12.4600000   20.8170000   29.9720000  
H 15.0580000   19.7200000   30.8930000  
H 16.4530000   18.9500000   31.1860000  
H 16.5660000   19.2760000   26.9520000  
H 12.1660000   19.5600000   24.9710000  
H 10.4200000   21.5180000   27.0820000  
C 14.4910000   19.6890000   25.0430000  
C 14.7130000   18.3630000   24.6810000  
C 15.1100000   18.0550000   23.4070000  
C 15.5030000   18.9670000   22.4180000  
C 15.2410000   20.3370000   22.7250000  
C 14.8400000   20.6750000   24.1070000  
C 14.4930000   17.1530000   25.3990000  
C 14.8550000   16.1740000   24.5130000  
N 15.4260000   16.7490000   23.3520000  
O 14.0380000   14.3680000   25.7230000  
C 14.6640000   14.6790000   24.5920000  
O 15.0080000   13.8080000   23.8180000  
O 15.5360000   21.3600000   21.8110000  
O 14.5640000   21.9400000   24.4240000  
H 14.0390000   17.0510000   26.3320000  
H 13.9280000   15.2110000   26.2090000  
H 15.9170000   16.3550000   22.5660000  
H 15.3160000   22.1690000   22.3220000  
H 14.4160000   22.1050000   25.4160000  
C 16.1600000   18.5700000   21.1620000  
C 15.6190000   17.5300000   20.3440000  
C 16.2500000   17.1510000   19.2060000  
C 17.4170000   17.6790000   18.6420000  
C 17.9130000   18.7470000   19.3690000  
C 17.3760000   19.2290000   20.6100000  
C 14.3840000   16.7920000   20.3770000  
C 14.4530000   15.8950000   19.3040000  
N 15.6050000   16.0520000   18.6260000  
O 12.6400000   14.5770000   20.0660000  
C 13.5640000   14.7210000   19.1140000  
O 13.7250000   13.8560000   18.2590000  
O 19.0330000   19.4120000   18.8480000  
O 18.0500000   20.1070000   21.3230000  
H 13.5550000   16.8560000   21.0950000  
H 12.7610000   15.4050000   20.6280000  
H 15.8100000   15.5820000   17.7520000  
H 19.5160000   19.0350000   18.0850000  
H 18.4430000   20.7470000   20.7190000  
C 17.9100000   17.2000000   17.2890000  
C 17.0580000   17.3800000   16.1640000  
C 17.3930000   16.8410000   14.9800000  
C 18.5980000   16.1700000   14.7630000  
C 19.5030000   16.0610000   15.8320000  
C 19.1160000   16.5040000   17.1400000  
C 15.7160000   17.9370000   16.0070000  
C 15.3240000   17.6950000   14.6870000  
N 16.3700000   17.0170000   14.0850000  
O 13.1610000   18.7640000   15.0020000  
C 14.0360000   18.1700000   14.1460000  
O 13.7850000   18.1190000   12.9530000  
O 20.7160000   15.5790000   15.6020000  
O 20.0240000   16.3430000   18.1690000  
H 15.0360000   18.3690000   16.7110000  
H 13.5880000   18.7260000   15.8960000  
H 16.3540000   16.5110000   13.2250000  
H 21.1600000   15.7290000   16.4840000  
H 19.6310000   16.5970000   18.9790000  
H 18.9200000   15.7510000   13.7920000  
