78
010 
C  9.8280000   18.4550000   26.3430000  
C  9.6840000   19.6850000   27.0010000  
C 10.6090000   20.6960000   26.6680000  
C 11.5030000   20.4200000   25.6290000  
C 11.6450000   19.2310000   24.9430000  
C 10.7050000   18.2920000   25.2630000  
C 11.1120000   21.9030000   27.3220000  
C 12.1000000   22.3800000   26.4940000  
N 12.3920000   21.3960000   25.4980000  
O 12.1570000   24.6020000   27.3320000  
C 12.7620000   23.6800000   26.5600000  
O 13.6690000   23.9710000   25.7640000  
O 10.6180000   17.0730000   24.5020000  
O  9.0280000   17.3910000   26.7650000  
H  8.9300000   19.8240000   27.8730000  
H 10.6780000   22.4240000   28.1690000  
H 11.4280000   24.0850000   27.7880000  
H 13.1570000   21.5090000   24.9160000  
H 11.2980000   17.0580000   23.8300000  
H  9.0810000   16.5790000   26.2090000  
C 12.6770000   18.9830000   23.9780000  
C 13.7270000   18.0920000   24.3350000  
C 14.7310000   17.9310000   23.4000000  
C 14.7820000   18.4340000   22.1090000  
C 13.7600000   19.3660000   21.8250000  
C 12.7060000   19.5840000   22.7340000  
C 14.0360000   17.1740000   25.4550000  
C 15.2630000   16.5820000   25.1470000  
N 15.7100000   17.0280000   23.8770000  
O 15.4170000   15.3450000   27.1610000  
C 16.0080000   15.6020000   25.9520000  
O 17.0250000   15.0500000   25.5890000  
O 13.6010000   19.9140000   20.5670000  
O 11.6080000   20.3180000   22.3530000  
H 13.4350000   16.7950000   26.2670000  
H 14.6800000   15.9720000   27.2170000  
H 16.4820000   16.6550000   23.3900000  
H 13.4020000   20.9110000   20.6080000  
H 10.8120000   20.0640000   22.8720000  
C 15.8640000   18.0380000   21.0970000  
C 15.6050000   17.1280000   20.1030000  
C 16.6370000   16.6240000   19.3760000  
C 17.9550000   17.0540000   19.4370000  
C 18.2150000   18.1640000   20.2660000  
C 17.1660000   18.6330000   21.1380000  
C 14.4330000   16.3630000   19.8460000  
C 14.8380000   15.3460000   18.9780000  
N 16.1580000   15.5470000   18.6230000  
O 12.8090000   14.1680000   19.1590000  
C 14.0190000   14.2180000   18.5450000  
O 14.3390000   13.4280000   17.6890000  
O 19.4980000   18.6200000   20.4120000  
O 17.3860000   19.6650000   21.9760000  
H 13.4400000   16.6880000   20.3120000  
H 12.7230000   14.8880000   19.7780000  
H 16.7910000   14.9940000   17.9900000  
H 20.0140000   17.9760000   19.9300000  
H 18.1260000   20.0880000   21.6270000  
C 19.0830000   16.3800000   18.7690000  
C 19.9460000   17.1280000   17.9110000  
C 21.1180000   16.6070000   17.5020000  
C 21.5340000   15.3530000   17.8110000  
C 20.6820000   14.5920000   18.6880000  
C 19.4310000   15.0940000   19.1500000  
C 19.8310000   18.4630000   17.3360000  
C 21.0310000   18.7030000   16.6360000  
N 21.7740000   17.5680000   16.6990000  
O 20.3570000   20.9460000   15.7420000  
C 21.3050000   19.9910000   15.9060000  
O 22.4590000   20.2020000   15.4390000  
O 20.9860000   13.2760000   18.9300000  
O 18.6230000   14.4200000   19.9830000  
H 18.9150000   19.0350000   17.2860000  
H 19.5980000   20.4670000   16.0660000  
H 22.7010000   17.4480000   16.3610000  
H 20.5890000   12.9850000   19.7910000  
H 18.0250000   15.0550000   20.2710000  
H 22.4400000   14.8700000   17.4310000  
