78
010 
C 10.0820000   17.2140000   16.5270000  
C 10.3720000   15.9860000   15.9360000  
C 11.3470000   15.1480000   16.5780000  
C 12.0270000   15.6860000   17.5910000  
C 11.9450000   17.0030000   18.0760000  
C 10.8920000   17.7880000   17.4970000  
C 11.6600000   13.7510000   16.4830000  
C 12.6730000   13.5190000   17.3700000  
N 12.8530000   14.7160000   18.1330000  
O 13.0140000   11.2630000   17.0220000  
C 13.4680000   12.3970000   17.6530000  
O 14.4160000   12.3620000   18.4260000  
O 10.6260000   19.0360000   17.8850000  
O  9.0500000   17.9330000   15.9720000  
H  9.8620000   15.6400000   15.0700000  
H 11.2840000   13.0390000   15.8010000  
H 12.2030000   11.6290000   16.5350000  
H 13.4400000   14.7480000   18.9700000  
H 11.2920000   19.2230000   18.6420000  
H  9.0190000   18.8500000   16.3330000  
C 12.7890000   17.4740000   19.2710000  
C 14.2400000   17.3330000   19.0940000  
C 15.0640000   17.5510000   20.1990000  
C 14.6310000   18.0750000   21.4810000  
C 13.2010000   18.2360000   21.6000000  
C 12.2620000   17.9090000   20.5390000  
C 15.0710000   16.8510000   17.9990000  
C 16.3090000   16.7270000   18.6060000  
N 16.3780000   17.2800000   19.9060000  
O 17.3730000   15.6200000   16.6910000  
C 17.4980000   16.0830000   17.9230000  
O 18.4970000   15.9830000   18.5740000  
O 12.6530000   18.8510000   22.7470000  
O 10.8730000   18.0710000   20.7270000  
H 14.8250000   16.5210000   17.0050000  
H 16.4560000   15.8070000   16.4380000  
H 17.1470000   17.3380000   20.4970000  
H 13.4480000   19.1990000   23.3050000  
H 10.3420000   17.6900000   19.9820000  
C 15.6230000   18.4380000   22.5360000  
C 15.7470000   19.7840000   22.9920000  
C 16.7470000   20.2000000   23.8250000  
C 17.7370000   19.3070000   24.2900000  
C 17.6060000   17.9690000   23.9110000  
C 16.6020000   17.5090000   23.0440000  
C 14.8650000   20.9240000   22.8100000  
C 15.3910000   21.9250000   23.6560000  
N 16.5310000   21.4620000   24.3410000  
O 13.6540000   23.4410000   23.1340000  
C 14.8320000   23.2970000   23.7250000  
O 15.5490000   24.1660000   24.1900000  
O 18.5920000   17.0760000   24.2480000  
O 16.5010000   16.1700000   22.7980000  
H 13.9410000   20.9380000   22.2650000  
H 13.5130000   22.6490000   22.6210000  
H 17.1020000   22.0090000   24.9540000  
H 19.1940000   17.6850000   24.7390000  
H 17.2480000   15.7630000   23.3350000  
C 18.8980000   19.8310000   25.0520000  
C 19.0910000   19.3860000   26.4020000  
C 20.2280000   19.8070000   27.1150000  
C 21.2140000   20.6740000   26.6100000  
C 21.0760000   20.9540000   25.2440000  
C 19.9600000   20.5630000   24.4910000  
C 18.3280000   18.5700000   27.3420000  
C 18.9780000   18.5960000   28.5660000  
N 20.1190000   19.2940000   28.4260000  
O 17.3450000   17.0140000   29.5210000  
C 18.5070000   17.7550000   29.7670000  
O 19.0030000   17.7580000   30.8240000  
O 22.0430000   21.8280000   24.7030000  
O 19.9170000   20.8550000   23.1230000  
H 17.4430000   18.0400000   27.0700000  
H 17.0700000   17.1270000   28.6110000  
H 20.8420000   19.5260000   29.1670000  
H 21.9360000   21.8750000   23.7970000  
H 19.2930000   20.1360000   22.8490000  
H 21.9850000   21.0570000   27.2290000  
