78
010 
C 17.2180000   19.0400000   28.9160000  
C 16.2880000   18.3920000   29.7200000  
C 15.2360000   17.6900000   29.0650000  
C 15.1840000   17.5070000   27.7280000  
C 16.0850000   18.1030000   26.8550000  
C 17.1160000   18.9060000   27.4790000  
C 14.0320000   17.0290000   29.5120000  
C 13.4060000   16.4310000   28.4440000  
N 14.1220000   16.6970000   27.2890000  
O 11.4920000   15.5280000   29.7110000  
C 12.0680000   15.6930000   28.5110000  
O 11.5860000   15.1880000   27.5320000  
O 18.1820000   19.3700000   26.6890000  
O 18.1960000   19.8620000   29.4370000  
H 16.4720000   18.4850000   30.7950000  
H 13.7260000   17.0780000   30.5480000  
H 11.9870000   16.1730000   30.2750000  
H 13.9880000   16.3060000   26.3180000  
H 17.8780000   19.0980000   25.7900000  
H 18.7740000   20.1970000   28.7370000  
C 15.8270000   17.9670000   25.3570000  
C 14.7510000   18.5260000   24.6980000  
C 14.6510000   18.3470000   23.3830000  
C 15.5350000   17.6470000   22.5640000  
C 16.6900000   17.2130000   23.1820000  
C 16.8660000   17.4000000   24.5590000  
C 13.5120000   19.0470000   25.2690000  
C 12.6640000   19.1110000   24.1930000  
N 13.3680000   18.7130000   23.0330000  
O 10.7890000   19.6280000   25.5210000  
C 11.2920000   19.5950000   24.2420000  
O 10.6670000   19.9810000   23.2350000  
O 17.6460000   16.5070000   22.5380000  
O 17.9770000   16.7710000   25.1420000  
H 13.2310000   19.3340000   26.2860000  
H 11.4120000   19.1610000   26.0840000  
H 12.9820000   18.5700000   22.0470000  
H 17.3110000   16.5470000   21.6690000  
H 18.3760000   16.1370000   24.4580000  
C 15.3710000   17.5010000   21.0740000  
C 15.3120000   18.6690000   20.2730000  
C 15.4040000   18.5340000   18.9090000  
C 15.5440000   17.3700000   18.1940000  
C 15.4030000   16.2010000   18.9750000  
C 15.3430000   16.2390000   20.3860000  
C 15.2800000   20.0860000   20.5270000  
C 15.5250000   20.7090000   19.3150000  
N 15.7190000   19.7210000   18.2850000  
O 15.3170000   23.0190000   20.1950000  
C 15.7610000   22.1950000   19.2020000  
O 16.3470000   22.7250000   18.2480000  
O 15.4770000   14.9560000   18.3600000  
O 15.4550000   15.0410000   21.0550000  
H 15.2470000   20.5960000   21.5020000  
H 14.8870000   22.4870000   20.9170000  
H 16.1180000   19.7600000   17.3370000  
H 15.5270000   15.1230000   17.3680000  
H 15.5020000   14.3860000   20.3280000  
C 15.7890000   17.3100000   16.7260000  
C 17.0760000   17.4000000   16.1730000  
C 17.2490000   17.4680000   14.8270000  
C 16.2690000   17.1800000   13.9110000  
C 14.9520000   17.0250000   14.3660000  
C 14.6690000   17.0950000   15.8110000  
C 18.3010000   17.4860000   16.8470000  
C 19.2110000   17.7320000   15.8310000  
N 18.5870000   17.8000000   14.5660000  
O 21.1620000   18.1230000   17.2410000  
C 20.6220000   18.1550000   16.0200000  
O 21.2660000   18.4760000   15.0820000  
O 13.9400000   16.9080000   13.4860000  
O 13.4190000   17.0180000   16.2910000  
H 18.5130000   17.2160000   17.9410000  
H 20.4900000   17.7660000   17.8200000  
H 18.9570000   18.3260000   13.8070000  
H 13.0770000   17.0740000   13.9870000  
H 13.5300000   16.8430000   17.2650000  
H 16.5370000   17.2060000   12.8760000  
