78
010 
C  8.5220000   20.0850000   23.3110000  
C  8.6050000   20.9610000   24.3720000  
C  9.8140000   21.1940000   25.0260000  
C 10.9440000   20.6380000   24.5470000  
C 10.9760000   19.7080000   23.4540000  
C  9.7020000   19.4810000   22.8060000  
C 10.1510000   21.9030000   26.1980000  
C 11.5660000   21.8940000   26.2880000  
N 12.0490000   21.1750000   25.1450000  
O 11.9050000   23.3390000   28.2780000  
C 12.4460000   22.5110000   27.3200000  
O 13.6570000   22.3730000   27.3350000  
O  9.6380000   18.4290000   21.8700000  
O  7.3000000   19.8100000   22.7780000  
H  7.6060000   21.3890000   24.6530000  
H  9.5040000   22.3920000   26.9690000  
H 10.9300000   23.2560000   28.1100000  
H 13.0300000   21.1940000   24.7750000  
H 10.2670000   17.7130000   22.0950000  
H  7.4390000   19.5130000   21.8410000  
C 12.2880000   19.1080000   22.9920000  
C 13.2410000   18.5720000   23.9190000  
C 14.3670000   17.9920000   23.4360000  
C 14.8260000   17.9940000   22.0760000  
C 13.8650000   18.5610000   21.1820000  
C 12.6310000   19.1330000   21.5950000  
C 13.2420000   18.2860000   25.3540000  
C 14.4380000   17.7320000   25.6630000  
N 15.1630000   17.5540000   24.4300000  
O 14.1660000   17.5520000   27.9830000  
C 14.9860000   17.2560000   26.9340000  
O 16.0420000   16.6500000   27.0860000  
O 14.0620000   18.5240000   19.8840000  
O 11.8070000   19.6820000   20.6420000  
H 12.4560000   18.5780000   26.0230000  
H 13.4620000   18.0600000   27.4720000  
H 16.0940000   17.1570000   24.2630000  
H 13.3240000   19.0170000   19.3880000  
H 11.0980000   20.1760000   21.0780000  
C 16.2480000   17.5670000   21.6490000  
C 16.6540000   16.3300000   20.9850000  
C 17.9220000   16.1740000   20.5390000  
C 18.8880000   17.2030000   20.5800000  
C 18.5350000   18.4600000   21.1500000  
C 17.2110000   18.6210000   21.6810000  
C 16.0540000   15.0320000   20.9530000  
C 17.0080000   14.0920000   20.4330000  
N 18.1360000   14.8650000   20.1030000  
O 15.7110000   12.0940000   20.6860000  
C 16.8320000   12.6330000   20.3100000  
O 17.7510000   11.9240000   19.8450000  
O 19.4260000   19.5110000   21.1020000  
O 16.9150000   19.7780000   22.2830000  
H 15.1160000   14.7310000   21.5220000  
H 15.2590000   12.8090000   21.0600000  
H 19.0320000   14.5360000   19.9080000  
H 20.1880000   19.1810000   20.5280000  
H 17.2790000   20.5190000   21.7940000  
C 20.1280000   16.9490000   19.7660000  
C 20.1390000   17.2980000   18.3970000  
C 21.1350000   16.8820000   17.5400000  
C 22.2790000   16.1560000   17.9890000  
C 22.2770000   15.7860000   19.3700000  
C 21.2100000   16.0680000   20.2270000  
C 19.1620000   17.9860000   17.5990000  
C 19.4790000   17.7650000   16.2610000  
N 20.7730000   17.2380000   16.2360000  
O 17.5270000   18.6710000   15.4840000  
C 18.6680000   18.1680000   15.1260000  
O 18.9380000   18.1080000   13.9440000  
O 23.3700000   15.1400000   19.8460000  
O 21.2400000   15.7330000   21.5140000  
H 18.2550000   18.4880000   17.8440000  
H 17.4640000   18.6570000   16.4280000  
H 21.3460000   16.9580000   15.4850000  
H 23.1990000   14.9850000   20.8060000  
H 20.7630000   16.3680000   21.9910000  
H 23.0830000   15.9350000   17.3200000  
