78
010 
C 20.3460000   12.3080000   22.7410000  
C 19.7840000   11.2540000   23.4100000  
C 18.3970000   11.3990000   23.7940000  
C 17.6610000   12.4930000   23.2700000  
C 18.3050000   13.6170000   22.6760000  
C 19.7100000   13.5100000   22.3700000  
C 17.4570000   10.5120000   24.4060000  
C 16.2200000   11.2630000   24.3090000  
N 16.3570000   12.4440000   23.5850000  
O 14.8860000    9.7230000   25.5230000  
C 14.9410000   10.9140000   24.9240000  
O 13.9270000   11.6090000   24.8620000  
O 20.4010000   14.5670000   21.8270000  
O 21.6540000   12.1580000   22.3380000  
H 20.2930000   10.2990000   23.6140000  
H 17.6360000    9.5630000   24.9200000  
H 15.7330000    9.3070000   25.3710000  
H 15.5680000   13.0410000   23.4400000  
H 19.8370000   15.2460000   21.5080000  
H 21.9240000   12.9530000   21.8560000  
C 17.5800000   14.9150000   22.3560000  
C 16.7480000   15.5350000   23.3070000  
C 16.0610000   16.6610000   22.9690000  
C 16.1750000   17.3430000   21.7120000  
C 16.9180000   16.6600000   20.7240000  
C 17.5690000   15.4240000   21.0380000  
C 16.5080000   15.3370000   24.7010000  
C 15.7300000   16.3900000   25.1810000  
N 15.4730000   17.2230000   24.1060000  
O 15.6550000   15.6400000   27.3870000  
C 15.2180000   16.5590000   26.5260000  
O 14.5540000   17.4890000   26.9620000  
O 17.0170000   17.2190000   19.4860000  
O 18.2390000   14.7310000   20.0170000  
H 16.7510000   14.4430000   25.2670000  
H 16.0810000   14.8850000   26.9070000  
H 14.7790000   18.0040000   24.1550000  
H 17.3250000   16.5490000   18.9110000  
H 18.4250000   13.8950000   20.4330000  
C 15.4330000   18.6550000   21.3280000  
C 16.1500000   19.7770000   20.8890000  
C 15.5240000   21.0070000   20.7150000  
C 14.1550000   21.2050000   20.8560000  
C 13.4160000   20.0760000   21.2070000  
C 14.0660000   18.8110000   21.4680000  
C 17.5690000   20.0520000   20.9220000  
C 17.7070000   21.4580000   20.7800000  
N 16.4250000   22.0450000   20.5430000  
O 20.1170000   21.3610000   20.9160000  
C 19.0350000   22.1450000   20.6870000  
O 19.1950000   23.3350000   20.4900000  
O 12.0310000   20.2110000   21.3720000  
O 13.2380000   17.7860000   21.9330000  
H 18.3790000   19.3930000   21.3180000  
H 19.8250000   20.4290000   21.0320000  
H 16.2420000   23.0330000   20.2540000  
H 11.7810000   21.0960000   21.1340000  
H 12.2470000   18.0700000   21.7970000  
C 13.5620000   22.6030000   20.6710000  
C 12.4940000   22.7730000   19.7260000  
C 12.0320000   24.0050000   19.4350000  
C 12.4200000   25.1420000   20.1000000  
C 13.4190000   24.9740000   21.0630000  
C 14.0150000   23.7620000   21.4210000  
C 11.8660000   21.8630000   18.8080000  
C 10.8930000   22.5850000   18.1060000  
N 10.9130000   23.8880000   18.5850000  
O  9.8810000   20.7610000   16.7920000  
C  9.8850000   22.0930000   17.1370000  
O  9.0970000   22.7990000   16.5320000  
O 13.6540000   26.0430000   21.8650000  
O 14.9020000   23.7370000   22.4420000  
H 11.9680000   20.7750000   18.7910000  
H 10.4400000   20.3320000   17.4380000  
H 10.3320000   24.6530000   18.3240000  
H 14.2730000   25.6380000   22.5350000  
H 15.2250000   22.7860000   22.4850000  
H 12.1210000   26.1620000   19.7780000  
