78
010 
C 11.9330000   20.2430000   27.3980000  
C 12.4640000   20.2520000   28.6300000  
C 13.6110000   19.5020000   28.9030000  
C 14.3380000   19.0330000   27.8390000  
C 13.9140000   19.1280000   26.5050000  
C 12.6280000   19.6490000   26.3260000  
C 14.3830000   19.2570000   30.0790000  
C 15.5860000   18.6300000   29.6330000  
N 15.5670000   18.5140000   28.2060000  
O 16.6250000   18.2730000   31.7560000  
C 16.6560000   17.9600000   30.4630000  
O 17.4930000   17.1980000   30.0370000  
O 12.1180000   19.7250000   25.0550000  
O 10.7150000   20.8530000   27.1770000  
H 11.8340000   20.6960000   29.4550000  
H 13.9740000   19.3420000   31.0740000  
H 15.9080000   18.9590000   31.8430000  
H 16.2600000   18.1060000   27.5880000  
H 12.6560000   19.0220000   24.5860000  
H 10.5200000   21.0560000   26.2420000  
C 14.7410000   18.7030000   25.3170000  
C 14.2460000   17.6800000   24.4830000  
C 14.8070000   17.4900000   23.2650000  
C 16.0490000   18.0830000   22.8120000  
C 16.5830000   19.1250000   23.6880000  
C 15.9130000   19.3910000   24.9180000  
C 13.0960000   16.8390000   24.5880000  
C 13.0230000   16.1510000   23.3850000  
N 14.1260000   16.5700000   22.6040000  
O 11.0640000   14.7530000   23.8000000  
C 12.0910000   15.0650000   22.9710000  
O 12.2290000   14.4800000   21.9340000  
O 17.7640000   19.7450000   23.4380000  
O 16.4170000   20.3020000   25.7370000  
H 12.4990000   16.7300000   25.5060000  
H 11.0970000   15.3860000   24.5630000  
H 14.4560000   16.1090000   21.7700000  
H 18.0060000   20.1060000   24.2760000  
H 15.6440000   20.7200000   26.2050000  
C 16.6560000   17.7980000   21.4690000  
C 15.8080000   17.8470000   20.3650000  
C 16.3330000   17.6400000   19.1460000  
C 17.6820000   17.3940000   18.8580000  
C 18.5500000   17.3560000   20.0090000  
C 18.0150000   17.5060000   21.2640000  
C 14.3940000   18.1280000   20.1240000  
C 14.0990000   17.9650000   18.7540000  
N 15.3720000   17.7060000   18.1220000  
O 11.6570000   17.8840000   18.9280000  
C 12.7750000   18.0570000   18.1020000  
O 12.6910000   18.1650000   16.8820000  
O 19.9060000   17.0270000   19.7850000  
O 18.8730000   17.3760000   22.3610000  
H 13.6570000   18.4330000   20.8330000  
H 11.9890000   17.9510000   19.8590000  
H 15.5200000   17.6880000   17.1640000  
H 20.0520000   16.9300000   18.8750000  
H 19.6760000   17.8580000   22.0900000  
C 18.0880000   17.0600000   17.4450000  
C 17.7850000   17.9380000   16.3790000  
C 17.9630000   17.5130000   15.0680000  
C 18.5220000   16.2700000   14.7830000  
C 18.8310000   15.4130000   15.8190000  
C 18.6600000   15.7990000   17.1480000  
C 17.2080000   19.2770000   16.3440000  
C 17.1520000   19.5730000   14.9410000  
N 17.6620000   18.4990000   14.1610000  
O 16.4410000   21.7590000   15.3480000  
C 16.5570000   20.7690000   14.4680000  
O 16.3510000   20.9210000   13.2580000  
O 19.2750000   14.1730000   15.4900000  
O 18.9270000   14.9170000   18.1600000  
H 16.8610000   19.8200000   17.1830000  
H 16.5800000   21.3410000   16.2060000  
H 17.6050000   18.4360000   13.1230000  
H 19.5030000   13.7700000   16.2890000  
H 18.8290000   15.4380000   18.9490000  
H 18.6160000   15.9440000   13.7260000  
