78
010 
C 19.6250000   11.7000000   20.9770000  
C 18.8220000   10.7070000   20.3940000  
C 17.4200000   11.0910000   20.1960000  
C 16.9950000   12.3910000   20.4200000  
C 17.7870000   13.3900000   20.9910000  
C 19.1270000   12.9780000   21.3980000  
C 16.2550000   10.4030000   19.7430000  
C 15.1770000   11.3240000   19.6990000  
N 15.6890000   12.5550000   20.2260000  
O 13.5510000    9.8400000   18.8310000  
C 13.7440000   11.0540000   19.4220000  
O 12.8390000   11.7560000   19.7460000  
O 19.9950000   13.7780000   22.1300000  
O 20.9350000   11.4240000   21.2890000  
H 19.1530000    9.6380000   20.2500000  
H 16.0170000    9.3470000   19.5870000  
H 14.3910000    9.4720000   18.9260000  
H 15.1260000   13.3620000   20.4450000  
H 19.4940000   14.5700000   22.4370000  
H 21.2390000   12.1920000   21.8140000  
C 17.3010000   14.7790000   21.2950000  
C 16.8150000   15.0730000   22.5770000  
C 16.2370000   16.3320000   22.8750000  
C 16.0830000   17.3860000   21.9090000  
C 16.5980000   17.0310000   20.6200000  
C 17.2120000   15.7930000   20.3280000  
C 16.6250000   14.2900000   23.7630000  
C 16.0660000   15.1240000   24.7670000  
N 15.8560000   16.4330000   24.2010000  
O 16.2560000   13.4750000   26.5150000  
C 15.7890000   14.7050000   26.2100000  
O 15.2580000   15.3930000   27.0390000  
O 16.5790000   17.9070000   19.5770000  
O 17.5050000   15.4710000   19.0530000  
H 16.8780000   13.2570000   23.9970000  
H 16.5170000   13.1540000   25.6540000  
H 15.4550000   17.1630000   24.6810000  
H 16.4080000   17.4640000   18.7060000  
H 18.1620000   14.7440000   18.8800000  
C 15.5670000   18.8330000   22.2020000  
C 16.2960000   20.0010000   21.8970000  
C 15.7940000   21.2760000   22.1630000  
C 14.5250000   21.4830000   22.7010000  
C 13.8050000   20.3510000   23.0230000  
C 14.2990000   19.0220000   22.8480000  
C 17.5120000   20.2440000   21.2390000  
C 17.7350000   21.6110000   21.2150000  
N 16.6370000   22.2450000   21.7960000  
O 19.8980000   21.5040000   20.1610000  
C 18.9440000   22.3360000   20.6530000  
O 19.1480000   23.5670000   20.6480000  
O 12.6140000   20.5250000   23.6920000  
O 13.4960000   17.9820000   23.2590000  
H 18.2420000   19.5220000   20.9300000  
H 19.3030000   20.6590000   20.4130000  
H 16.5390000   23.2960000   22.0140000  
H 12.5290000   21.4630000   23.9710000  
H 12.5950000   18.2300000   23.4060000  
C 14.0550000   22.8430000   23.0160000  
C 13.1960000   23.4880000   22.1350000  
C 12.4010000   24.5370000   22.4300000  
C 12.4180000   25.0110000   23.7540000  
C 13.2820000   24.4790000   24.7180000  
C 14.0610000   23.3390000   24.3670000  
C 12.9300000   23.1010000   20.7900000  
C 11.9460000   24.0070000   20.3620000  
N 11.6380000   24.8950000   21.3790000  
O 11.8730000   23.0860000   18.0290000  
C 11.4110000   24.0370000   18.9450000  
O 10.7270000   24.9420000   18.5240000  
O 13.2320000   24.9510000   25.9990000  
O 14.8910000   22.7770000   25.2980000  
H 13.4920000   22.2980000   20.2580000  
H 12.3140000   22.4270000   18.6070000  
H 10.9980000   25.6910000   21.3160000  
H 13.6910000   24.2480000   26.5050000  
H 15.4880000   22.0840000   24.9440000  
H 11.8140000   25.8620000   24.0310000  
