78
010 
C 10.2220000   19.4740000   26.8180000  
C 10.3830000   20.7830000   27.3510000  
C 11.3790000   21.6420000   26.8060000  
C 12.1780000   21.1450000   25.8800000  
C 12.1780000   19.8700000   25.3400000  
C 11.1380000   18.9760000   25.8410000  
C 11.7590000   22.9810000   27.0930000  
C 12.7430000   23.2960000   26.1640000  
N 13.0590000   22.1120000   25.4630000  
O 12.7580000   25.7190000   26.6050000  
C 13.2150000   24.6680000   25.8820000  
O 14.0800000   24.9020000   25.0250000  
O 10.8860000   17.8210000   25.2070000  
O  9.1030000   18.7920000   27.2150000  
H  9.7500000   21.0660000   28.2310000  
H 11.2160000   23.7680000   27.6790000  
H 12.1740000   25.3060000   27.2380000  
H 13.7860000   22.0500000   24.8010000  
H 11.7740000   17.5160000   24.9060000  
H  9.1280000   18.0030000   26.6270000  
C 13.0650000   19.3640000   24.2600000  
C 14.1350000   18.4840000   24.5320000  
C 15.0430000   18.2420000   23.5780000  
C 15.0150000   18.5900000   22.1880000  
C 13.9290000   19.4550000   21.8900000  
C 12.9570000   19.7930000   22.9040000  
C 14.6240000   17.8960000   25.7260000  
C 15.8480000   17.3720000   25.4870000  
N 16.0550000   17.4950000   24.1500000  
O 16.3140000   16.6780000   27.7210000  
C 16.7100000   16.6450000   26.4280000  
O 17.8570000   16.3570000   26.1500000  
O 13.7880000   19.8930000   20.5810000  
O 11.9720000   20.6810000   22.5320000  
H 14.2420000   18.0640000   26.7480000  
H 15.5430000   17.2350000   27.5390000  
H 16.9750000   17.3090000   23.7330000  
H 14.2920000   19.3020000   20.0010000  
H 11.3510000   20.5830000   23.1980000  
C 15.9940000   18.2120000   21.1800000  
C 15.8010000   16.9480000   20.5880000  
C 16.7560000   16.4730000   19.7510000  
C 17.9230000   17.1060000   19.4090000  
C 18.0940000   18.4340000   19.9930000  
C 17.1420000   18.9420000   20.8790000  
C 14.8330000   15.8960000   20.7670000  
C 15.3200000   14.7520000   20.1480000  
N 16.5000000   15.0980000   19.4310000  
O 13.5670000   13.3900000   20.8730000  
C 14.5830000   13.4800000   19.9870000  
O 14.7950000   12.5950000   19.2200000  
O 19.1970000   19.1820000   19.6310000  
O 17.3960000   20.1010000   21.5340000  
H 13.9250000   15.9750000   21.3200000  
H 13.6540000   14.2480000   21.4580000  
H 16.8360000   14.5790000   18.6470000  
H 19.8200000   18.5350000   19.2850000  
H 18.2120000   20.4640000   21.1830000  
C 18.9880000   16.3080000   18.7380000  
C 18.8710000   15.8750000   17.3190000  
C 19.9280000   15.2780000   16.6430000  
C 21.1290000   14.9620000   17.2890000  
C 21.2830000   15.3430000   18.6590000  
C 20.2540000   16.0200000   19.3200000  
C 17.8490000   16.1610000   16.4180000  
C 18.3420000   15.7400000   15.1830000  
N 19.6420000   15.2090000   15.3370000  
O 16.5470000   16.6730000   13.9220000  
C 17.6890000   15.9550000   13.8830000  
O 18.1800000   15.5290000   12.8650000  
O 22.3510000   14.8800000   19.3750000  
O 20.5230000   16.3370000   20.6200000  
H 16.8940000   16.6030000   16.6510000  
H 16.5250000   17.0840000   14.7670000  
H 20.2700000   14.7820000   14.6590000  
H 22.1880000   15.0840000   20.2750000  
H 19.6620000   16.5350000   21.0640000  
H 21.9450000   14.3850000   16.8300000  
