78
010 
C 13.5610000   12.5050000   17.0670000  
C 14.0410000   11.3340000   17.5770000  
C 14.7620000   11.3770000   18.7940000  
C 14.8700000   12.5760000   19.4200000  
C 14.1980000   13.7220000   19.0740000  
C 13.6260000   13.7130000   17.7720000  
C 15.4210000   10.4420000   19.6740000  
C 15.8450000   11.1650000   20.8030000  
N 15.4880000   12.4770000   20.6620000  
O 17.1350000    9.3440000   21.6320000  
C 16.6360000   10.5770000   21.9690000  
O 16.7520000   11.0930000   23.0970000  
O 13.1480000   14.8800000   17.2420000  
O 13.2180000   12.4660000   15.7420000  
H 14.0180000   10.3520000   16.9940000  
H 15.3330000    9.3780000   19.7490000  
H 16.9330000    9.2990000   20.6640000  
H 15.6800000   13.1950000   21.3100000  
H 13.3140000   15.5630000   17.9210000  
H 13.3060000   13.3600000   15.4570000  
C 14.3000000   15.0030000   19.8260000  
C 15.2570000   15.9780000   19.4620000  
C 15.4320000   17.1230000   20.2220000  
C 14.8030000   17.3160000   21.5130000  
C 13.8560000   16.3240000   21.8790000  
C 13.6360000   15.1760000   21.0750000  
C 16.2770000   15.9520000   18.4630000  
C 16.9360000   17.1740000   18.5860000  
N 16.5490000   17.7630000   19.8040000  
O 18.3510000   16.8270000   16.7230000  
C 18.0470000   17.6360000   17.7110000  
O 18.6380000   18.7360000   17.8720000  
O 13.0800000   16.5140000   23.0250000  
O 12.7380000   14.1870000   21.5270000  
H 16.3630000   15.2860000   17.6010000  
H 17.6480000   16.1660000   16.8760000  
H 16.9950000   18.5080000   20.2470000  
H 13.2560000   17.3960000   23.3200000  
H 12.0450000   14.6110000   22.0970000  
C 15.1480000   18.4210000   22.4090000  
C 15.1910000   19.7160000   21.8200000  
C 15.5480000   20.8150000   22.5660000  
C 16.1650000   20.7820000   23.8300000  
C 16.1080000   19.4990000   24.4620000  
C 15.5640000   18.3970000   23.7650000  
C 14.9120000   20.2440000   20.5340000  
C 15.1760000   21.6220000   20.5290000  
N 15.5030000   21.9850000   21.8350000  
O 14.8160000   22.0800000   18.1790000  
C 15.0610000   22.6020000   19.4120000  
O 15.1450000   23.8020000   19.5440000  
O 16.5730000   19.3510000   25.7380000  
O 15.6310000   17.1340000   24.3510000  
H 14.4750000   19.6900000   19.7120000  
H 14.8950000   21.0940000   18.3570000  
H 15.6980000   22.9490000   22.0830000  
H 16.8760000   20.3070000   26.0800000  
H 15.9380000   17.3510000   25.2340000  
C 16.7650000   21.9900000   24.4990000  
C 16.2390000   22.4310000   25.7580000  
C 16.7530000   23.5550000   26.3460000  
C 17.8990000   24.1710000   25.8360000  
C 18.3920000   23.8500000   24.5940000  
C 17.7690000   22.7800000   23.8830000  
C 15.1680000   21.9720000   26.6240000  
C 15.0310000   22.8920000   27.6460000  
N 16.1260000   23.8110000   27.5170000  
O 13.0560000   22.1370000   28.6470000  
C 13.9770000   23.0550000   28.7000000  
O 13.9680000   23.9790000   29.5440000  
O 19.4020000   24.5120000   24.0630000  
O 18.1230000   22.5020000   22.6190000  
H 14.4420000   21.1910000   26.3470000  
H 13.2680000   21.5410000   27.9870000  
H 16.3010000   24.5280000   28.1730000  
H 19.4710000   24.2450000   23.1520000  
H 17.6720000   21.6200000   22.4250000  
H 18.3820000   25.0990000   26.2610000  
