78
010 
C 19.8920000   11.9360000   21.8560000  
C 19.0930000   10.8480000   22.1870000  
C 17.7350000   11.0820000   22.5260000  
C 17.2070000   12.3430000   22.5350000  
C 17.9620000   13.4490000   22.1170000  
C 19.3270000   13.2320000   21.8330000  
C 16.6800000   10.2240000   22.9450000  
C 15.5480000   10.9760000   23.1520000  
N 15.9060000   12.3350000   22.9150000  
O 14.0430000    9.2300000   23.6300000  
C 14.2250000   10.5740000   23.5110000  
O 13.2680000   11.3060000   23.7250000  
O 20.0800000   14.2990000   21.5450000  
O 21.2120000   11.7700000   21.3400000  
H 19.4630000    9.8640000   22.2150000  
H 16.7490000    9.1280000   23.0410000  
H 14.9740000    8.9380000   23.4880000  
H 15.3700000   13.1660000   23.1810000  
H 19.5690000   15.1620000   21.7220000  
H 21.6370000   12.6130000   21.3000000  
C 17.2920000   14.7610000   22.0740000  
C 17.5100000   15.7060000   23.0440000  
C 16.8670000   16.8950000   22.9320000  
C 16.1220000   17.3560000   21.8030000  
C 15.9230000   16.3580000   20.8190000  
C 16.4730000   15.0720000   20.9740000  
C 18.1140000   15.5990000   24.3370000  
C 17.5830000   16.7320000   25.0330000  
N 16.8410000   17.5680000   24.1460000  
O 18.6010000   16.1260000   27.1600000  
C 17.8810000   17.0550000   26.3880000  
O 17.4810000   18.1150000   26.8280000  
O 15.1690000   16.5240000   19.6740000  
O 16.3380000   14.0660000   20.0150000  
H 18.6990000   14.8010000   24.8220000  
H 18.6960000   15.4260000   26.4610000  
H 16.4280000   18.4800000   24.3090000  
H 15.3470000   15.8160000   19.0700000  
H 16.7570000   13.1780000   20.3830000  
C 15.3580000   18.6540000   21.7570000  
C 15.7540000   19.7180000   20.8740000  
C 15.1800000   20.9450000   20.9500000  
C 14.1490000   21.2140000   21.8490000  
C 13.6830000   20.2060000   22.6950000  
C 14.2750000   18.9040000   22.6280000  
C 16.7970000   19.8190000   19.9220000  
C 16.7310000   21.0730000   19.3550000  
N 15.7160000   21.8000000   19.9830000  
O 18.5160000   20.7470000   17.7920000  
C 17.5020000   21.5420000   18.2000000  
O 17.2680000   22.5180000   17.5670000  
O 12.6980000   20.4560000   23.5580000  
O 13.8530000   17.9970000   23.5550000  
H 17.1770000   18.9280000   19.3820000  
H 18.7280000   20.1450000   18.5610000  
H 15.3930000   22.6390000   19.7100000  
H 12.1140000   21.2180000   23.2340000  
H 13.2840000   18.3160000   24.2630000  
C 13.6690000   22.6370000   22.0080000  
C 12.8070000   23.1060000   21.0520000  
C 12.4790000   24.4410000   20.9620000  
C 12.9750000   25.4030000   21.8590000  
C 13.6980000   24.8860000   22.9670000  
C 14.1480000   23.5480000   22.9730000  
C 12.1380000   22.5020000   19.9010000  
C 11.4880000   23.5200000   19.1830000  
N 11.6840000   24.7170000   19.8920000  
O 10.3520000   21.9580000   17.6460000  
C 10.5670000   23.2840000   18.0060000  
O  9.9840000   24.2110000   17.4210000  
O 13.9130000   25.7160000   24.0370000  
O 14.9370000   23.0440000   23.9320000  
H 12.0780000   21.4580000   19.4860000  
H 10.6850000   21.4730000   18.4870000  
H 11.2980000   25.6150000   19.6710000  
H 14.7090000   25.3310000   24.4410000  
H 15.1890000   22.1140000   23.7720000  
H 12.5650000   26.3730000   21.9980000  
