78
010 
C  8.7790000   17.9750000   19.1590000  
C  8.4030000   16.7970000   18.5080000  
C  9.3010000   15.7520000   18.4220000  
C 10.5630000   15.9520000   18.8790000  
C 11.0800000   17.1170000   19.5220000  
C 10.1020000   18.1670000   19.6670000  
C  9.1230000   14.3790000   18.1300000  
C 10.3800000   13.7870000   18.3010000  
N 11.2900000   14.8050000   18.7180000  
O  9.6390000   11.4930000   17.7270000  
C 10.6650000   12.3320000   18.0260000  
O 11.8020000   11.8380000   18.0050000  
O 10.4090000   19.4450000   20.2920000  
O  7.9190000   19.0590000   19.2520000  
H  7.3610000   16.7480000   18.2200000  
H  8.2350000   13.8720000   17.9130000  
H  8.8240000   12.0270000   17.6720000  
H 12.1750000   14.6050000   19.1560000  
H 11.3010000   19.3650000   20.7440000  
H  8.3810000   19.8280000   19.6010000  
C 12.4930000   17.2170000   20.0120000  
C 13.3780000   18.2000000   19.5470000  
C 14.5880000   18.4030000   20.1300000  
C 15.0830000   17.6970000   21.2360000  
C 14.1760000   16.7440000   21.7960000  
C 12.8870000   16.4950000   21.1890000  
C 13.2070000   19.2760000   18.5770000  
C 14.4090000   20.0570000   18.5930000  
N 15.2090000   19.5480000   19.5720000  
O 13.7430000   21.3570000   16.8490000  
C 14.6720000   21.2130000   17.7450000  
O 15.6970000   21.9100000   17.7940000  
O 14.4940000   16.0520000   22.9190000  
O 12.0700000   15.5990000   21.8280000  
H 12.3040000   19.5660000   18.1750000  
H 13.0490000   20.6650000   16.9900000  
H 16.0210000   19.9680000   19.9330000  
H 13.7960000   15.3510000   23.0990000  
H 11.3200000   15.4320000   21.2240000  
C 16.4320000   18.0330000   21.8520000  
C 16.5010000   18.6990000   23.0570000  
C 17.6760000   19.0810000   23.5570000  
C 18.9460000   18.8830000   23.0090000  
C 18.8550000   18.1500000   21.7690000  
C 17.6540000   17.7910000   21.1470000  
C 15.4640000   19.1590000   23.9400000  
C 16.1080000   19.7840000   24.9750000  
N 17.4930000   19.7700000   24.7380000  
O 14.2000000   20.0980000   26.3910000  
C 15.5290000   20.1860000   26.2560000  
O 16.1560000   20.6050000   27.2160000  
O 19.9990000   17.9130000   21.0790000  
O 17.7220000   17.2250000   19.8790000  
H 14.4650000   18.6800000   24.0610000  
H 13.7720000   19.9040000   25.5950000  
H 18.1710000   20.0460000   25.4230000  
H 20.7400000   17.9900000   21.7860000  
H 18.6590000   16.8760000   19.7810000  
C 20.2440000   19.3350000   23.6150000  
C 20.7010000   18.9460000   24.8350000  
C 21.8840000   19.3680000   25.4400000  
C 22.6480000   20.3700000   24.8270000  
C 22.1600000   20.8710000   23.6180000  
C 20.9850000   20.3270000   22.9370000  
C 20.1950000   17.9580000   25.7710000  
C 21.1310000   17.7780000   26.8180000  
N 22.1210000   18.7760000   26.6080000  
O 19.8790000   15.9930000   27.7310000  
C 21.0040000   16.7890000   27.8570000  
O 21.8260000   16.5830000   28.7610000  
O 22.7400000   21.9650000   23.0920000  
O 20.4870000   20.9730000   21.8800000  
H 19.1980000   17.5050000   25.6470000  
H 19.3090000   16.3270000   27.0270000  
H 22.9190000   19.0110000   27.2580000  
H 22.3840000   22.0700000   22.2100000  
H 19.5510000   20.6980000   21.9290000  
H 23.5180000   20.8650000   25.2940000  
