78
010 
C  9.7230000   17.8390000   17.6860000  
C  9.5900000   16.5940000   17.0450000  
C 10.3850000   15.5280000   17.4710000  
C 11.3960000   15.7720000   18.2940000  
C 11.6780000   17.0380000   18.8870000  
C 10.7320000   18.0950000   18.6310000  
C 10.4470000   14.1930000   17.0170000  
C 11.5500000   13.6220000   17.7180000  
N 12.1220000   14.6120000   18.5030000  
O 11.2400000   11.4650000   16.8460000  
C 12.0220000   12.2210000   17.6290000  
O 13.0130000   11.7260000   18.2510000  
O 10.8750000   19.3670000   19.1360000  
O  8.7250000   18.7690000   17.3590000  
H  8.8460000   16.3150000   16.2440000  
H  9.9350000   13.6840000   16.2820000  
H 10.3920000   12.0140000   16.7920000  
H 12.9320000   14.4630000   19.0790000  
H 11.7690000   19.3930000   19.5000000  
H  8.9360000   19.6210000   17.7730000  
C 12.9020000   17.2960000   19.7450000  
C 14.0170000   17.7230000   19.0860000  
C 15.1490000   18.0460000   19.7910000  
C 15.2880000   18.0980000   21.2070000  
C 14.0730000   17.7220000   21.8340000  
C 12.9130000   17.3250000   21.1470000  
C 14.3560000   17.8650000   17.6860000  
C 15.5880000   18.4340000   17.6550000  
N 16.1200000   18.5440000   18.9260000  
O 15.2620000   18.8640000   15.3990000  
C 16.1120000   18.9430000   16.4510000  
O 17.1760000   19.4560000   16.2530000  
O 13.9490000   17.7610000   23.1940000  
O 11.7460000   16.9160000   21.8690000  
H 13.6290000   17.8360000   16.8610000  
H 14.5460000   18.4210000   15.8370000  
H 17.0310000   18.7960000   19.1790000  
H 14.6150000   18.3500000   23.5150000  
H 11.2640000   16.2190000   21.4090000  
C 16.4960000   18.4850000   21.9430000  
C 16.5800000   19.6720000   22.6630000  
C 17.5530000   19.9620000   23.5410000  
C 18.5420000   18.9680000   23.7960000  
C 18.5970000   17.8060000   22.9990000  
C 17.5630000   17.5690000   22.0730000  
C 15.5810000   20.7000000   22.8750000  
C 16.0650000   21.5880000   23.8420000  
N 17.2860000   21.0850000   24.2960000  
O 14.1850000   23.0730000   23.9470000  
C 15.4150000   22.7760000   24.4730000  
O 15.9270000   23.4680000   25.3330000  
O 19.5580000   16.8840000   23.1520000  
O 17.4890000   16.3330000   21.5110000  
H 14.6140000   20.6400000   22.4130000  
H 13.9290000   22.2780000   23.4050000  
H 17.7520000   21.5030000   25.0840000  
H 20.1280000   17.1410000   23.8690000  
H 17.9600000   15.7760000   22.1020000  
C 19.5910000   19.3000000   24.9090000  
C 19.5230000   18.6360000   26.1540000  
C 20.2950000   18.9230000   27.2260000  
C 21.2050000   19.9520000   27.1850000  
C 21.3610000   20.6220000   25.9820000  
C 20.5110000   20.3490000   24.8470000  
C 18.6340000   17.6100000   26.6290000  
C 18.9200000   17.3100000   27.8870000  
N 20.0200000   18.1690000   28.2580000  
O 17.3720000   15.5780000   28.3310000  
C 18.3350000   16.3330000   28.8180000  
O 18.7160000   16.2450000   29.9810000  
O 22.3550000   21.6110000   25.9570000  
O 20.5490000   21.1990000   23.8190000  
H 17.8660000   17.1490000   26.0630000  
H 17.3760000   15.8250000   27.4380000  
H 20.4830000   18.1380000   29.1920000  
H 22.6860000   21.6790000   25.0830000  
H 19.7600000   20.9470000   23.2250000  
H 21.8440000   20.1840000   28.0500000  
