78
010 
C 18.7620000   11.8180000   20.0680000  
C 18.0630000   10.6730000   20.5750000  
C 16.9170000   10.8920000   21.3370000  
C 16.5400000   12.1320000   21.6130000  
C 17.1290000   13.2770000   21.0900000  
C 18.2570000   13.1320000   20.2060000  
C 15.9700000    9.9930000   22.0370000  
C 15.0960000   10.8060000   22.7080000  
N 15.4360000   12.1370000   22.4250000  
O 13.7340000    9.1060000   23.6330000  
C 13.9190000   10.4710000   23.5790000  
O 13.1960000   11.2930000   24.1780000  
O 18.9760000   14.2270000   19.7710000  
O 19.8870000   11.5070000   19.4120000  
H 18.4730000    9.6520000   20.3710000  
H 16.1200000    8.9070000   22.0340000  
H 14.4940000    8.7510000   23.0850000  
H 15.0680000   12.9610000   22.7550000  
H 18.4500000   14.9750000   20.0340000  
H 20.1620000   12.2830000   18.8970000  
C 16.6500000   14.6460000   21.3930000  
C 17.4700000   15.4740000   22.1940000  
C 17.0380000   16.7270000   22.5720000  
C 15.8930000   17.3670000   22.0550000  
C 15.0240000   16.5120000   21.2670000  
C 15.4280000   15.1740000   20.9780000  
C 18.8020000   15.2880000   22.7590000  
C 19.0130000   16.3810000   23.5870000  
N 17.9270000   17.2410000   23.5310000  
O 21.0710000   15.5890000   24.5330000  
C 20.2250000   16.6240000   24.4460000  
O 20.3560000   17.6280000   25.1370000  
O 13.8390000   16.8940000   20.7410000  
O 14.6460000   14.3400000   20.2640000  
H 19.5300000   14.4490000   22.6720000  
H 20.6910000   14.9100000   23.9430000  
H 17.8130000   18.1280000   24.0140000  
H 13.4910000   16.2200000   20.1330000  
H 15.2370000   13.7180000   19.8090000  
C 15.5820000   18.8190000   22.3290000  
C 15.8310000   19.7930000   21.3130000  
C 15.4740000   21.0960000   21.6030000  
C 14.8020000   21.5500000   22.7920000  
C 14.4110000   20.4970000   23.6970000  
C 14.7150000   19.1550000   23.4290000  
C 16.4530000   19.8040000   19.9940000  
C 16.4790000   21.1580000   19.5850000  
N 15.8800000   21.9280000   20.6260000  
O 17.5920000   20.8280000   17.6010000  
C 17.1170000   21.7070000   18.4540000  
O 17.1270000   22.9090000   18.1850000  
O 13.5860000   20.8580000   24.7650000  
O 14.1960000   18.1870000   24.2150000  
H 16.6950000   18.9960000   19.3390000  
H 17.2440000   19.9870000   17.9680000  
H 15.7150000   22.9190000   20.5950000  
H 13.1470000   21.6980000   24.4440000  
H 13.5180000   18.5480000   24.7170000  
C 14.1640000   22.8540000   22.9680000  
C 13.1150000   23.2400000   22.0780000  
C 12.7450000   24.5460000   21.9740000  
C 13.1140000   25.5260000   22.8250000  
C 14.0350000   25.1650000   23.8110000  
C 14.6020000   23.8400000   23.8820000  
C 12.3250000   22.4740000   21.0200000  
C 11.4550000   23.3850000   20.4990000  
N 11.7060000   24.6590000   21.0920000  
O 10.4890000   21.8370000   18.9360000  
C 10.5430000   23.1300000   19.3620000  
O  9.7940000   23.9640000   18.8350000  
O 14.4140000   26.0580000   24.7830000  
O 15.5390000   23.5970000   24.8740000  
H 12.4620000   21.4250000   20.7150000  
H 10.9010000   21.4020000   19.7540000  
H 11.2480000   25.4940000   20.8990000  
H 15.1970000   25.8100000   25.2390000  
H 15.8580000   22.7110000   24.8240000  
H 12.5860000   26.4480000   22.9290000  
