78
010 
C  8.3910000   20.1520000   22.7950000  
C  7.9110000   20.5370000   21.4980000  
C  8.7810000   20.1840000   20.4640000  
C  9.9310000   19.5100000   20.6850000  
C 10.4790000   19.2320000   21.9200000  
C  9.6690000   19.6350000   23.0510000  
C  8.6230000   20.3890000   19.0200000  
C  9.7550000   19.7590000   18.4140000  
N 10.5250000   19.2010000   19.5010000  
O  9.3710000   20.3860000   16.1310000  
C 10.1690000   19.6370000   16.9960000  
O 11.0860000   18.9710000   16.5370000  
O 10.2020000   19.5290000   24.3140000  
O  7.6140000   20.5420000   23.8580000  
H  6.9360000   20.9470000   21.1970000  
H  7.8690000   21.0100000   18.4660000  
H  8.8510000   20.8630000   16.7420000  
H 11.3250000   18.6400000   19.3430000  
H 11.1480000   19.4940000   24.0790000  
H  7.9440000   20.1520000   24.7150000  
C 11.8050000   18.6920000   22.0390000  
C 12.8920000   19.5030000   22.4710000  
C 14.1590000   19.0750000   22.3420000  
C 14.5190000   17.7200000   22.0570000  
C 13.4610000   16.9210000   21.5990000  
C 12.1330000   17.3380000   21.6150000  
C 12.9630000   20.8290000   22.9640000  
C 14.3450000   21.1840000   22.9900000  
N 15.0870000   20.0080000   22.7140000  
O 14.1400000   23.5810000   23.4960000  
C 14.9580000   22.4930000   23.2400000  
O 16.1540000   22.6640000   23.1500000  
O 13.6880000   15.6190000   21.2040000  
O 11.0610000   16.5900000   21.1970000  
H 12.0990000   21.4870000   23.0890000  
H 13.3000000   23.1260000   23.6910000  
H 16.0480000   19.9410000   22.6580000  
H 14.6760000   15.4530000   21.2140000  
H 10.3260000   17.1520000   20.9590000  
C 15.9060000   17.2870000   22.0020000  
C 16.6740000   17.2810000   23.2050000  
C 17.9840000   16.9520000   23.1240000  
C 18.7310000   16.7820000   21.9820000  
C 17.9780000   16.7910000   20.7530000  
C 16.6070000   17.1230000   20.7890000  
C 16.2250000   17.3190000   24.5640000  
C 17.3580000   17.0900000   25.3380000  
N 18.4350000   16.9410000   24.4530000  
O 16.2540000   17.3850000   27.4590000  
C 17.4410000   17.0680000   26.8290000  
O 18.3760000   16.6860000   27.5130000  
O 18.6700000   16.6610000   19.5820000  
O 15.9950000   16.9740000   19.5900000  
H 15.2000000   17.5050000   24.9080000  
H 15.6500000   17.6850000   26.7680000  
H 19.4350000   16.7140000   24.6730000  
H 19.5910000   16.5600000   19.8620000  
H 16.6250000   16.6610000   18.9730000  
C 20.2150000   16.8610000   22.0750000  
C 21.0170000   15.9450000   21.3140000  
C 22.4150000   16.0530000   21.3750000  
C 23.0990000   17.1090000   22.0590000  
C 22.3190000   18.0950000   22.6020000  
C 20.8980000   17.9820000   22.7030000  
C 20.7300000   14.7630000   20.5570000  
C 21.8950000   14.1430000   20.2430000  
N 22.9380000   14.9790000   20.7980000  
O 21.0210000   12.2670000   19.2490000  
C 22.1650000   12.9240000   19.5620000  
O 23.2670000   12.4290000   19.3790000  
O 22.9880000   19.2280000   23.1240000  
O 20.1560000   18.9600000   23.2750000  
H 19.7420000   14.3420000   20.3190000  
H 20.3760000   12.7610000   19.7260000  
H 23.8960000   14.6330000   20.8540000  
H 22.2620000   19.7730000   23.4580000  
H 19.2680000   18.7800000   23.3620000  
H 24.1650000   17.1720000   22.0040000  
