78
010 
C 19.1030000   11.9620000   20.2790000  
C 18.4730000   10.9180000   19.5590000  
C 17.1410000   11.1760000   19.1830000  
C 16.4990000   12.3170000   19.6040000  
C 17.0760000   13.3360000   20.4250000  
C 18.4110000   13.1540000   20.6750000  
C 16.2310000   10.4000000   18.4640000  
C 15.0310000   11.1080000   18.4870000  
N 15.2270000   12.3530000   19.1160000  
O 13.6960000    9.2850000   17.7950000  
C 13.7420000   10.6030000   18.0590000  
O 12.7110000   11.2780000   17.9840000  
O 19.0750000   13.9910000   21.4950000  
O 20.3400000   11.7640000   20.8140000  
H 18.9590000   10.0210000   19.2220000  
H 16.3680000    9.3370000   18.1460000  
H 14.5460000    9.0740000   18.0950000  
H 14.6030000   13.1290000   19.3150000  
H 18.5060000   14.7220000   21.8120000  
H 20.5220000   12.5000000   21.3730000  
C 16.4380000   14.6490000   20.8630000  
C 16.3100000   15.1210000   22.2130000  
C 15.9170000   16.3620000   22.5220000  
C 15.4600000   17.2690000   21.5740000  
C 15.3930000   16.8190000   20.2000000  
C 15.9660000   15.5390000   19.8570000  
C 16.5310000   14.4870000   23.5350000  
C 16.3660000   15.4730000   24.5050000  
N 15.9790000   16.6180000   23.8710000  
O 16.8430000   14.1870000   26.5250000  
C 16.5980000   15.4410000   25.9830000  
O 16.5680000   16.4220000   26.7380000  
O 14.8100000   17.4970000   19.1970000  
O 16.0080000   15.1380000   18.5230000  
H 16.6900000   13.4460000   23.7400000  
H 16.8350000   13.5600000   25.7980000  
H 15.6990000   17.4960000   24.2410000  
H 14.8480000   17.0150000   18.3480000  
H 16.5490000   14.3230000   18.5100000  
C 15.1270000   18.7000000   22.0150000  
C 16.0370000   19.7560000   21.7340000  
C 15.8610000   20.9950000   22.2460000  
C 14.8280000   21.3560000   23.1120000  
C 14.0080000   20.2890000   23.5120000  
C 14.0360000   19.0080000   22.9290000  
C 17.1920000   19.8170000   20.8020000  
C 17.7120000   21.1080000   20.9450000  
N 16.9110000   21.8100000   21.7960000  
O 19.4060000   20.7850000   19.3910000  
C 18.8560000   21.6430000   20.2730000  
O 19.3150000   22.7900000   20.3540000  
O 13.0790000   20.4970000   24.4670000  
O 13.1640000   18.0350000   23.2640000  
H 17.5410000   19.1070000   20.0690000  
H 18.9590000   19.9210000   19.6290000  
H 16.9010000   22.7800000   21.9310000  
H 13.0700000   21.4740000   24.6000000  
H 12.4290000   18.4240000   23.7760000  
C 14.7270000   22.6760000   23.7270000  
C 13.5900000   23.4450000   23.6520000  
C 13.5380000   24.7760000   23.9400000  
C 14.6560000   25.4940000   24.4700000  
C 15.7910000   24.6670000   24.6770000  
C 15.8080000   23.3310000   24.2880000  
C 12.3950000   23.1380000   22.9510000  
C 11.6360000   24.3020000   22.8070000  
N 12.3790000   25.3320000   23.4000000  
O  9.9620000   23.4130000   21.3860000  
C 10.4220000   24.5230000   21.9820000  
O  9.9570000   25.6550000   21.7890000  
O 16.9340000   25.2450000   25.2120000  
O 16.9910000   22.6830000   24.4330000  
H 12.1420000   22.2780000   22.4250000  
H 10.4730000   22.6790000   21.7450000  
H 12.1290000   26.3180000   23.4750000  
H 17.4980000   24.5210000   25.4110000  
H 16.8410000   21.7950000   24.0890000  
H 14.6520000   26.5480000   24.5940000  
