78
010 
C 16.0130000   10.7280000   23.3290000  
C 16.6940000   10.6260000   24.5320000  
C 17.2100000   11.6830000   25.2230000  
C 16.8430000   12.9030000   24.7720000  
C 16.1520000   13.2220000   23.5890000  
C 15.7580000   12.0420000   22.8540000  
C 17.8580000   11.8340000   26.4900000  
C 17.8280000   13.2120000   26.7790000  
N 17.2970000   13.9060000   25.6220000  
O 19.0480000   12.8470000   28.7970000  
C 18.5350000   13.7800000   27.9340000  
O 18.7800000   14.9750000   28.1780000  
O 15.0280000   12.1820000   21.7720000  
O 15.4420000    9.6540000   22.7790000  
H 16.7240000    9.6130000   24.8800000  
H 18.2720000   10.9680000   27.0820000  
H 18.6850000   12.0540000   28.4870000  
H 17.1250000   14.8860000   25.4340000  
H 14.6660000   13.1380000   21.8230000  
H 14.7480000    9.9690000   22.1600000  
C 15.8920000   14.6450000   23.1880000  
C 16.9430000   15.5920000   23.0160000  
C 16.6970000   16.8370000   22.4990000  
C 15.4260000   17.3910000   22.2260000  
C 14.3580000   16.4590000   22.3880000  
C 14.5780000   15.1050000   22.7980000  
C 18.3910000   15.5160000   23.1540000  
C 18.8380000   16.8150000   22.9570000  
N 17.8140000   17.6230000   22.4520000  
O 20.9740000   16.3040000   23.8280000  
C 20.1320000   17.2810000   23.4790000  
O 20.4740000   18.4330000   23.3930000  
O 13.1390000   16.8210000   21.9590000  
O 13.4720000   14.3830000   23.0920000  
H 18.9560000   14.7130000   23.4530000  
H 20.4310000   15.5360000   23.6110000  
H 17.9730000   18.6100000   22.3010000  
H 13.1760000   17.6910000   21.6420000  
H 12.7570000   15.0480000   23.3420000  
C 15.2020000   18.7910000   21.7390000  
C 15.5470000   19.1040000   20.4210000  
C 15.2790000   20.3030000   19.8770000  
C 14.7170000   21.3660000   20.5590000  
C 14.3830000   21.1400000   21.8980000  
C 14.5850000   19.8390000   22.4450000  
C 16.2550000   18.3470000   19.3730000  
C 16.3530000   19.1340000   18.2530000  
N 15.7660000   20.3610000   18.5630000  
O 17.3450000   17.3820000   16.9500000  
C 17.0390000   18.7290000   16.9680000  
O 17.2640000   19.6030000   16.1150000  
O 13.7710000   22.0970000   22.4870000  
O 14.1600000   19.6650000   23.7400000  
H 16.7070000   17.4130000   19.5950000  
H 16.8320000   16.9220000   17.6850000  
H 15.7420000   21.1250000   17.8550000  
H 13.6030000   22.7260000   21.7020000  
H 13.9350000   20.5710000   24.0040000  
C 14.4580000   22.7060000   19.9320000  
C 13.1530000   23.0370000   19.5470000  
C 12.8180000   24.2810000   19.1280000  
C 13.7470000   25.3530000   19.0520000  
C 15.1300000   25.0010000   19.2950000  
C 15.4740000   23.6670000   19.7280000  
C 11.9050000   22.3090000   19.5210000  
C 10.9100000   23.1550000   19.1790000  
N 11.4770000   24.3870000   18.9060000  
O  9.1260000   21.4420000   19.2590000  
C  9.4680000   22.7830000   19.1310000  
O  8.5730000   23.5720000   19.0130000  
O 16.0430000   26.0060000   19.2190000  
O 16.7610000   23.3380000   20.1500000  
H 11.7510000   21.2290000   19.7100000  
H  9.9540000   20.9900000   19.3350000  
H 10.9710000   25.2330000   18.6940000  
H 16.8940000   25.5980000   19.4910000  
H 16.8830000   22.3700000   20.0530000  
H 13.4720000   26.3900000   18.6990000  
