78
010 
C 20.8770000   13.1200000   22.7840000  
C 20.3960000   11.8750000   23.0720000  
C 19.0820000   11.5890000   23.0120000  
C 18.1730000   12.4840000   22.6610000  
C 18.5050000   13.8550000   22.3390000  
C 19.9460000   14.1580000   22.3910000  
C 18.3120000   10.5150000   23.6010000  
C 16.9620000   10.8520000   23.4460000  
N 16.8790000   12.1040000   22.8380000  
O 16.0280000    9.0440000   24.6360000  
C 15.7710000   10.1270000   23.9440000  
O 14.6480000   10.4300000   23.6420000  
O 20.3850000   15.4400000   22.0470000  
O 22.1690000   13.4370000   22.7340000  
H 21.1680000   11.1310000   23.3120000  
H 18.6000000    9.6120000   24.0210000  
H 16.8680000    8.7670000   24.3580000  
H 16.1340000   12.6350000   22.6190000  
H 19.5250000   15.9420000   21.9210000  
H 22.1640000   14.3800000   22.3950000  
C 17.5290000   14.8950000   21.9480000  
C 16.5960000   15.4570000   22.8720000  
C 15.8260000   16.4910000   22.5170000  
C 15.7130000   17.0570000   21.2870000  
C 16.4780000   16.3870000   20.2710000  
C 17.4440000   15.3610000   20.6070000  
C 16.4120000   15.2190000   24.3130000  
C 15.4460000   16.1270000   24.7190000  
N 15.1490000   16.9620000   23.6260000  
O 15.3030000   15.1210000   26.7660000  
C 14.9170000   16.1600000   26.0720000  
O 14.2740000   17.0990000   26.4780000  
O 16.3670000   16.8100000   18.9520000  
O 18.2700000   14.8070000   19.6700000  
H 16.9460000   14.5190000   24.9730000  
H 15.9680000   14.6620000   26.2640000  
H 14.4810000   17.7020000   23.5900000  
H 17.1410000   16.5990000   18.4150000  
H 18.5720000   13.9750000   20.0240000  
C 14.9620000   18.3360000   21.0400000  
C 15.3480000   19.5910000   21.6580000  
C 14.6420000   20.7360000   21.4710000  
C 13.4440000   20.8200000   20.7070000  
C 13.0150000   19.5770000   20.0440000  
C 13.8370000   18.3930000   20.1990000  
C 16.3260000   19.8870000   22.6830000  
C 16.2180000   21.2620000   22.9310000  
N 15.1400000   21.8280000   22.1580000  
O 17.9620000   21.2440000   24.5470000  
C 16.9800000   22.0240000   23.9840000  
O 16.7720000   23.1990000   24.2940000  
O 11.9610000   19.6440000   19.1860000  
O 13.4150000   17.2390000   19.5950000  
H 16.8150000   19.1940000   23.2870000  
H 17.9930000   20.3870000   23.9380000  
H 14.8010000   22.7670000   22.2570000  
H 11.7790000   20.6100000   19.1400000  
H 12.5900000   17.4630000   19.0920000  
C 12.6260000   22.0550000   20.6780000  
C 13.0390000   23.1650000   19.8740000  
C 12.2790000   24.2590000   19.7880000  
C 11.0650000   24.4010000   20.4290000  
C 10.5830000   23.3450000   21.2250000  
C 11.3480000   22.1720000   21.3340000  
C 14.2480000   23.3070000   19.0810000  
C 14.1610000   24.6110000   18.5310000  
N 12.9440000   25.2410000   18.9910000  
O 16.0590000   24.4540000   17.1890000  
C 15.0120000   25.2130000   17.5170000  
O 14.8580000   26.3010000   17.0700000  
O  9.3650000   23.3880000   21.7500000  
O 10.9210000   21.1580000   22.1260000  
H 14.9980000   22.5540000   18.9530000  
H 16.1040000   23.6800000   17.7550000  
H 12.6160000   26.1500000   18.7990000  
H  9.2560000   22.5850000   22.2260000  
H 11.5010000   20.4240000   21.9230000  
H 10.4570000   25.3080000   20.3300000  
