78
010 
C 18.7470000   14.5780000   27.6780000  
C 19.5960000   13.6510000   27.0990000  
C 19.6040000   13.4340000   25.7040000  
C 18.7270000   14.2350000   24.9760000  
C 17.9830000   15.3140000   25.4400000  
C 18.0040000   15.4670000   26.8820000  
C 20.3900000   12.6460000   24.7450000  
C 19.8560000   12.9820000   23.5170000  
N 18.7870000   13.8850000   23.6610000  
O 21.2200000   11.3870000   22.2990000  
C 20.0840000   12.1310000   22.2720000  
O 19.4190000   12.1590000   21.2740000  
O 17.5060000   16.5680000   27.4730000  
O 18.7430000   14.7480000   29.0740000  
H 20.3160000   13.1450000   27.8100000  
H 21.1910000   11.9660000   25.0420000  
H 21.6570000   11.6290000   23.1360000  
H 18.2550000   14.2690000   22.9400000  
H 17.3600000   17.2530000   26.7400000  
H 18.1780000   15.5880000   29.2320000  
C 17.2950000   16.2160000   24.5160000  
C 15.9200000   16.4480000   24.7030000  
C 15.2690000   17.1620000   23.7840000  
C 15.7940000   17.7610000   22.6350000  
C 17.2130000   17.6610000   22.5440000  
C 18.0010000   16.9740000   23.5260000  
C 14.9660000   15.7650000   25.5880000  
C 13.7440000   16.1070000   25.1460000  
N 13.9320000   16.9350000   23.9980000  
O 12.5240000   14.7250000   26.6130000  
C 12.4360000   15.6410000   25.7010000  
O 11.3430000   15.9730000   25.2720000  
O 17.8400000   18.2460000   21.4030000  
O 19.3010000   16.9010000   23.3980000  
H 15.1940000   15.1630000   26.4140000  
H 13.3860000   14.7210000   27.0690000  
H 13.2000000   17.3430000   23.5130000  
H 18.7440000   17.8850000   21.2380000  
H 19.7410000   16.3770000   24.1410000  
C 15.0000000   18.4740000   21.6520000  
C 14.3230000   19.6910000   21.8750000  
C 13.6960000   20.4010000   20.8880000  
C 13.6240000   19.9470000   19.5500000  
C 14.2960000   18.7650000   19.2680000  
C 14.9420000   18.0260000   20.2800000  
C 14.1740000   20.4880000   23.0820000  
C 13.5610000   21.7160000   22.7250000  
N 13.1610000   21.6090000   21.3630000  
O 13.6780000   22.7530000   24.8150000  
C 13.3340000   22.9070000   23.5240000  
O 12.8250000   23.9120000   23.0480000  
O 14.2440000   18.2050000   18.0120000  
O 15.4500000   16.7930000   19.9490000  
H 14.5920000   20.1650000   23.9670000  
H 14.1600000   21.9540000   24.8950000  
H 12.5800000   22.2430000   20.8130000  
H 13.8700000   18.8490000   17.3050000  
H 15.3600000   16.6330000   19.0040000  
C 12.9660000   20.6940000   18.3750000  
C 13.7920000   21.2680000   17.4190000  
C 13.2810000   21.7330000   16.2480000  
C 11.8880000   21.8990000   16.0030000  
C 11.0100000   21.4630000   17.0030000  
C 11.5770000   20.8650000   18.2350000  
C 15.2910000   21.2730000   17.2240000  
C 15.4670000   21.7240000   15.9460000  
N 14.2820000   22.0770000   15.3810000  
O 17.9180000   21.6180000   15.9230000  
C 16.7590000   21.9640000   15.2920000  
O 16.9330000   22.3990000   14.1740000  
O  9.6190000   21.5920000   16.8560000  
O 10.7520000   20.2030000   19.0770000  
H 16.0810000   20.9810000   17.8860000  
H 17.6870000   21.1830000   16.7630000  
H 14.1830000   22.3950000   14.4000000  
H  9.1640000   21.0820000   17.5860000  
H 11.3170000   19.7370000   19.6790000  
H 11.5440000   22.3630000   15.0540000  
