78
010 
C 15.0200000   20.5900000   28.8860000  
C 14.0030000   19.9330000   29.6420000  
C 13.5490000   18.7640000   29.0910000  
C 13.9290000   18.3850000   27.7850000  
C 14.9070000   19.0090000   26.9920000  
C 15.4850000   20.1370000   27.6210000  
C 12.6840000   17.7360000   29.5960000  
C 12.5440000   16.7980000   28.5760000  
N 13.3640000   17.1680000   27.4810000  
O 11.1160000   15.4510000   29.8340000  
C 11.7600000   15.5630000   28.6370000  
O 11.6590000   14.7310000   27.7690000  
O 16.3580000   20.9120000   26.8940000  
O 15.3770000   21.8760000   29.2790000  
H 13.5530000   20.4340000   30.5490000  
H 12.1150000   17.8460000   30.5100000  
H 11.3110000   16.3140000   30.3260000  
H 13.5670000   16.5740000   26.6890000  
H 16.5350000   20.3530000   26.0950000  
H 16.1130000   22.1020000   28.7140000  
C 15.3250000   18.4910000   25.5820000  
C 14.4830000   18.7260000   24.5130000  
C 14.8630000   18.2100000   23.2640000  
C 16.1070000   17.5540000   22.9230000  
C 16.9120000   17.3520000   24.1010000  
C 16.4910000   17.7660000   25.4110000  
C 13.2420000   19.3440000   24.3000000  
C 12.7600000   19.0690000   22.9850000  
N 13.8060000   18.3000000   22.3690000  
O 10.7120000   20.3230000   23.0340000  
C 11.5040000   19.4880000   22.3040000  
O 11.2550000   19.0990000   21.1730000  
O 18.2140000   16.8170000   24.0700000  
O 17.3660000   17.6140000   26.4340000  
H 12.8060000   20.0200000   25.0370000  
H 11.2340000   20.4570000   23.8330000  
H 13.9070000   18.1810000   21.3080000  
H 18.3000000   16.3230000   23.2500000  
H 18.1240000   17.0270000   26.0130000  
C 16.4910000   17.2690000   21.4670000  
C 16.3740000   18.2430000   20.4630000  
C 16.5550000   17.9740000   19.1460000  
C 16.8400000   16.6860000   18.6600000  
C 17.0240000   15.6690000   19.6540000  
C 16.8300000   16.0030000   20.9990000  
C 15.9130000   19.6610000   20.4830000  
C 15.8260000   20.0770000   19.1550000  
N 16.0840000   18.9960000   18.3360000  
O 15.2800000   22.3950000   19.5930000  
C 15.2850000   21.3680000   18.7220000  
O 14.8040000   21.6050000   17.6450000  
O 17.3930000   14.3910000   19.3300000  
O 16.8650000   15.0300000   21.9220000  
H 15.6250000   20.2670000   21.3700000  
H 15.5450000   22.1650000   20.5350000  
H 16.0500000   18.9570000   17.3570000  
H 17.6320000   14.2300000   18.3980000  
H 16.7700000   14.1110000   21.5420000  
C 16.8400000   16.4240000   17.1600000  
C 17.7600000   17.0940000   16.3330000  
C 17.7840000   16.8610000   15.0220000  
C 16.9550000   15.9060000   14.3900000  
C 16.0460000   15.1350000   15.0960000  
C 15.9480000   15.4760000   16.5120000  
C 18.7110000   18.1440000   16.5730000  
C 19.3380000   18.4070000   15.3460000  
N 18.7980000   17.6200000   14.3670000  
O 20.6800000   20.1040000   16.2660000  
C 20.3480000   19.4070000   15.1330000  
O 20.7260000   19.8230000   14.0570000  
O 15.2030000   14.1580000   14.5580000  
O 14.9970000   14.8550000   17.2120000  
H 18.9440000   18.6150000   17.5520000  
H 20.2870000   19.5510000   16.9660000  
H 18.9080000   17.7440000   13.3970000  
H 14.6810000   13.5850000   15.1930000  
H 15.1140000   15.1060000   18.1490000  
H 17.2260000   15.8140000   13.3590000  
