78
010 
C 20.3500000   12.8410000   24.7700000  
C 19.5310000   11.6760000   24.9020000  
C 18.2330000   11.7690000   24.4410000  
C 17.7640000   12.9430000   24.0220000  
C 18.4000000   14.1390000   23.8800000  
C 19.7990000   14.0160000   24.2330000  
C 17.2310000   10.7970000   24.1850000  
C 16.1260000   11.4070000   23.6090000  
N 16.4890000   12.7600000   23.4860000  
O 14.5540000    9.6670000   23.8190000  
C 14.7840000   10.8580000   23.3590000  
O 14.0080000   11.5520000   22.7050000  
O 20.5630000   15.1600000   24.1900000  
O 21.6730000   12.9030000   25.1070000  
H 19.8350000   10.6810000   25.2070000  
H 17.2380000    9.7480000   24.5090000  
H 15.4010000    9.4820000   24.1890000  
H 15.9670000   13.4080000   23.0100000  
H 19.9360000   15.9030000   23.9920000  
H 21.9080000   13.8840000   25.0320000  
C 17.7340000   15.3380000   23.3310000  
C 17.2790000   16.3220000   24.2490000  
C 16.5480000   17.3750000   23.7790000  
C 16.1910000   17.6190000   22.4480000  
C 16.6860000   16.6550000   21.5390000  
C 17.4930000   15.5540000   21.9340000  
C 17.1960000   16.3800000   25.6690000  
C 16.3840000   17.4480000   25.9830000  
N 15.9400000   18.0540000   24.7660000  
O 16.5270000   17.2030000   28.3100000  
C 16.0630000   17.9670000   27.3500000  
O 15.5260000   18.9760000   27.6060000  
O 16.3860000   16.8820000   20.2060000  
O 18.0130000   14.7000000   21.0270000  
H 17.7330000   15.7330000   26.3920000  
H 17.1130000   16.5950000   27.8540000  
H 15.3590000   18.8950000   24.6620000  
H 16.6780000   16.0890000   19.6430000  
H 18.5990000   14.1610000   21.5910000  
C 15.2990000   18.7410000   22.0510000  
C 15.7060000   19.9210000   21.4120000  
C 14.8270000   20.9030000   20.9920000  
C 13.4220000   20.8830000   21.0800000  
C 12.9480000   19.6950000   21.7350000  
C 13.8900000   18.6930000   22.2600000  
C 16.9320000   20.2280000   20.7210000  
C 16.7830000   21.3980000   19.9640000  
N 15.5150000   21.9280000   20.3340000  
O 18.8670000   21.1820000   19.1580000  
C 17.8590000   22.0140000   19.1810000  
O 17.8830000   23.1030000   18.5920000  
O 11.6060000   19.5450000   22.0570000  
O 13.3480000   17.6580000   22.9110000  
H 17.8530000   19.6480000   20.7200000  
H 18.4720000   20.4070000   19.4890000  
H 15.1280000   22.7230000   19.7790000  
H 11.0960000   20.1140000   21.5550000  
H 12.3810000   17.9070000   23.1980000  
C 12.5110000   21.7350000   20.2270000  
C 12.6690000   21.8870000   18.8390000  
C 11.8800000   22.7660000   18.1040000  
C 10.9310000   23.6290000   18.7040000  
C 10.7240000   23.5100000   20.1310000  
C 11.4850000   22.5420000   20.8540000  
C 13.5930000   21.2520000   17.8480000  
C 13.3000000   21.9340000   16.6530000  
N 12.2040000   22.7670000   16.8100000  
O 15.3520000   21.3190000   15.5900000  
C 14.2290000   22.0360000   15.4860000  
O 14.0820000   22.7510000   14.5110000  
O  9.8530000   24.3310000   20.7270000  
O 11.1920000   22.4680000   22.1640000  
H 14.4720000   20.6500000   18.0780000  
H 15.1450000   20.9170000   16.3960000  
H 11.8820000   23.3310000   16.0950000  
H  9.7200000   24.0770000   21.6820000  
H 11.8640000   21.8940000   22.5830000  
H 10.2740000   24.3380000   18.1000000  
