78
010 
C 15.7610000   15.6950000   28.8490000  
C 17.0720000   15.2070000   29.1390000  
C 17.9680000   15.2350000   28.1090000  
C 17.7050000   15.6670000   26.8380000  
C 16.4710000   16.2460000   26.5000000  
C 15.4990000   16.3010000   27.5820000  
C 19.3670000   14.8070000   28.0150000  
C 19.7410000   14.9270000   26.7080000  
N 18.7800000   15.5960000   25.9930000  
O 22.0290000   14.0910000   26.9430000  
C 21.0650000   14.5810000   26.1410000  
O 21.1890000   14.6660000   24.9390000  
O 14.2420000   16.7630000   27.1620000  
O 14.7600000   15.5480000   29.7400000  
H 17.2170000   14.8410000   30.1090000  
H 19.9840000   14.3410000   28.7430000  
H 21.7780000   14.4480000   27.8240000  
H 18.9490000   16.0160000   25.1260000  
H 14.4790000   17.2760000   26.3550000  
H 14.2920000   16.4140000   29.7160000  
C 16.1180000   16.7080000   25.1480000  
C 16.0830000   15.9020000   24.0690000  
C 15.7530000   16.3480000   22.8800000  
C 15.4610000   17.7130000   22.5510000  
C 15.5320000   18.5280000   23.6960000  
C 15.8020000   18.0450000   24.9550000  
C 16.2080000   14.5050000   24.0510000  
C 16.1720000   14.1500000   22.6530000  
N 15.7350000   15.3230000   21.9850000  
O 16.7480000   11.9030000   22.9870000  
C 16.3760000   12.8670000   22.0540000  
O 16.1630000   12.5970000   20.8880000  
O 15.2110000   19.8470000   23.6240000  
O 15.8740000   18.9210000   26.0270000  
H 16.3540000   13.9510000   24.9550000  
H 16.7710000   12.4600000   23.8050000  
H 15.6760000   15.4100000   21.0150000  
H 14.6830000   19.9230000   22.8000000  
H 16.0840000   19.8260000   25.5950000  
C 15.1760000   18.3110000   21.2150000  
C 13.8640000   18.5990000   20.8710000  
C 13.6530000   19.2020000   19.6770000  
C 14.6300000   19.6480000   18.6920000  
C 15.9430000   19.3350000   19.0280000  
C 16.2290000   18.6750000   20.2990000  
C 12.6760000   18.4900000   21.5800000  
C 11.7090000   19.0160000   20.7200000  
N 12.2850000   19.4720000   19.5520000  
O  9.9860000   18.5880000   22.2380000  
C 10.3020000   19.0930000   21.0480000  
O  9.5210000   19.5340000   20.2600000  
O 17.0060000   19.6160000   18.1650000  
O 17.5380000   18.2890000   20.5390000  
H 12.4540000   18.1110000   22.5820000  
H 10.8400000   18.3160000   22.6690000  
H 11.7420000   19.9070000   18.8660000  
H 16.6250000   20.1350000   17.4430000  
H 18.0720000   18.5730000   19.7730000  
C 14.2890000   20.1490000   17.3630000  
C 14.8870000   21.3690000   16.9330000  
C 14.5440000   21.9370000   15.7110000  
C 13.5010000   21.3940000   14.9470000  
C 13.0280000   20.1380000   15.2640000  
C 13.3770000   19.5110000   16.4650000  
C 15.7140000   22.2820000   17.6770000  
C 15.8830000   23.3920000   16.8460000  
N 15.1820000   23.1400000   15.6710000  
O 17.5580000   24.3220000   18.1730000  
C 16.8060000   24.5150000   17.0980000  
O 16.9670000   25.4680000   16.3650000  
O 12.0640000   19.5630000   14.5110000  
O 12.8650000   18.2430000   16.8020000  
H 16.2150000   22.1450000   18.6830000  
H 17.3600000   23.4240000   18.5770000  
H 15.1340000   23.7660000   14.8870000  
H 11.8080000   18.7100000   14.9890000  
H 13.1690000   17.9630000   17.6720000  
H 13.0680000   21.8950000   14.0170000  
