78
010 
C 15.0700000   13.6060000   27.9230000  
C 16.3320000   13.5220000   28.6790000  
C 17.3180000   14.4100000   28.2220000  
C 17.1140000   15.1550000   27.0900000  
C 15.9140000   15.2130000   26.2930000  
C 14.8450000   14.4800000   26.8360000  
C 18.6610000   14.7500000   28.7060000  
C 19.1130000   15.7930000   27.8810000  
N 18.1660000   16.0360000   26.9060000  
O 21.1030000   16.0440000   28.9980000  
C 20.3680000   16.4970000   27.9640000  
O 20.6990000   17.4210000   27.2010000  
O 13.7580000   14.3140000   26.0490000  
O 13.9920000   12.8730000   28.2730000  
H 16.3900000   12.8880000   29.5910000  
H 19.2160000   14.2900000   29.5150000  
H 20.7560000   15.2510000   29.3320000  
H 18.1010000   16.7010000   26.1610000  
H 13.9820000   14.5380000   25.1440000  
H 13.3720000   12.9420000   27.4990000  
C 15.7550000   16.1410000   25.0790000  
C 16.5450000   15.9970000   23.9260000  
C 16.4800000   16.8200000   22.8730000  
C 15.5330000   17.8440000   22.7200000  
C 14.6400000   17.9420000   23.8320000  
C 14.7930000   17.1290000   24.9590000  
C 17.5580000   15.0860000   23.6130000  
C 17.8910000   15.2770000   22.2780000  
N 17.3070000   16.4650000   21.8650000  
O 19.1340000   13.3060000   22.1310000  
C 18.7770000   14.3990000   21.4880000  
O 19.1370000   14.5570000   20.3200000  
O 13.6620000   18.8460000   23.6560000  
O 14.0580000   17.3800000   26.0710000  
H 17.9190000   14.2480000   24.2240000  
H 18.6290000   13.5660000   22.9210000  
H 17.4290000   16.8750000   20.9460000  
H 14.0190000   19.6280000   23.1920000  
H 13.5410000   18.1820000   25.9900000  
C 15.4600000   18.5950000   21.4990000  
C 14.3370000   18.4350000   20.6270000  
C 14.2630000   19.1530000   19.4280000  
C 15.2690000   20.0200000   18.9670000  
C 16.4300000   20.0920000   19.7960000  
C 16.5060000   19.5030000   21.0940000  
C 13.1470000   17.5860000   20.6590000  
C 12.4660000   17.8570000   19.4790000  
N 13.1520000   18.7520000   18.7340000  
O 10.5300000   16.6780000   20.0620000  
C 11.1670000   17.3320000   19.0890000  
O 10.6440000   17.5690000   18.0240000  
O 17.4300000   20.8870000   19.3580000  
O 17.6820000   19.6250000   21.7440000  
H 12.7810000   16.7150000   21.2920000  
H 11.1170000   16.5990000   20.8560000  
H 12.8390000   19.0910000   17.8450000  
H 17.1860000   21.3510000   18.5200000  
H 18.2450000   20.0040000   21.0850000  
C 15.2160000   20.6490000   17.6430000  
C 14.3650000   21.7260000   17.3040000  
C 14.4600000   22.3360000   16.1380000  
C 15.3410000   21.9300000   15.1160000  
C 16.3030000   20.9560000   15.3500000  
C 16.2050000   20.2820000   16.6070000  
C 13.3330000   22.4060000   18.0500000  
C 12.8370000   23.3950000   17.2110000  
N 13.5910000   23.3930000   16.0300000  
O 11.1430000   23.9260000   18.7050000  
C 11.6600000   24.2850000   17.4830000  
O 11.2600000   25.2270000   16.8860000  
O 17.3170000   20.7690000   14.4560000  
O 17.0870000   19.2580000   16.8840000  
H 12.9560000   22.1150000   19.0640000  
H 11.7080000   23.1410000   18.9750000  
H 13.4220000   23.9850000   15.2070000  
H 17.9360000   20.0730000   14.7890000  
H 16.6570000   18.8870000   17.6670000  
H 15.3180000   22.4180000   14.1220000  
