78
010 
C 16.4070000   14.1010000   28.3040000  
C 17.6460000   13.4410000   28.1640000  
C 18.4100000   13.5860000   27.0340000  
C 17.9860000   14.4120000   26.0810000  
C 16.7530000   15.1000000   26.0880000  
C 15.9370000   14.9220000   27.2480000  
C 19.6510000   12.8970000   26.6190000  
C 19.9070000   13.4550000   25.3370000  
N 18.9590000   14.4710000   25.0970000  
O 22.1660000   12.6300000   25.1610000  
C 21.1210000   13.2490000   24.5230000  
O 21.0680000   13.5180000   23.3200000  
O 14.7630000   15.6370000   27.4620000  
O 15.6190000   13.8480000   29.4450000  
H 18.0850000   12.8200000   29.0010000  
H 20.2050000   12.1470000   27.1310000  
H 21.6260000   12.4290000   25.9560000  
H 18.9870000   15.1000000   24.3060000  
H 14.5980000   16.1180000   26.6060000  
H 14.9600000   14.5850000   29.5950000  
C 16.4220000   16.0240000   24.9760000  
C 16.1580000   15.5700000   23.6990000  
C 15.8150000   16.4610000   22.7350000  
C 15.7800000   17.9080000   22.8060000  
C 16.1480000   18.3350000   24.1070000  
C 16.4410000   17.4230000   25.1640000  
C 16.0760000   14.2330000   23.1080000  
C 15.6340000   14.4090000   21.7860000  
N 15.4440000   15.8150000   21.6040000  
O 15.7990000   12.0790000   21.2320000  
C 15.4160000   13.2890000   20.7760000  
O 15.0820000   13.4620000   19.6010000  
O 16.0660000   19.6840000   24.3960000  
O 16.8560000   17.9850000   26.3120000  
H 16.2440000   13.2380000   23.5570000  
H 16.2860000   12.2350000   22.0650000  
H 15.1680000   16.2010000   20.7520000  
H 15.7660000   20.2010000   23.6070000  
H 16.5930000   18.9070000   26.1260000  
C 15.2960000   18.7940000   21.7070000  
C 14.2010000   19.6940000   21.7750000  
C 13.7420000   20.2910000   20.6320000  
C 14.1790000   20.0350000   19.3260000  
C 15.3530000   19.2240000   19.2410000  
C 15.9220000   18.6210000   20.4260000  
C 13.4520000   20.2730000   22.8730000  
C 12.6150000   21.2450000   22.2300000  
N 12.7230000   21.1870000   20.8370000  
O 11.7070000   22.1210000   24.2240000  
C 11.7450000   22.2030000   22.9050000  
O 11.1160000   23.0330000   22.2840000  
O 15.9660000   19.0130000   17.9870000  
O 17.0930000   17.9010000   20.3430000  
H 13.4960000   20.1500000   23.9870000  
H 12.2550000   21.3940000   24.5020000  
H 12.4380000   21.9380000   20.2360000  
H 15.4510000   19.4520000   17.2560000  
H 17.4420000   18.0980000   19.3980000  
C 13.5160000   20.5580000   18.1320000  
C 14.1460000   21.6570000   17.4570000  
C 13.6960000   22.1760000   16.3150000  
C 12.5450000   21.7110000   15.7600000  
C 11.8200000   20.6650000   16.3870000  
C 12.3120000   20.0550000   17.5760000  
C 15.3880000   22.3540000   17.6890000  
C 15.5940000   23.2990000   16.6780000  
N 14.5270000   23.1670000   15.8010000  
O 17.8000000   23.9570000   17.3490000  
C 16.8160000   24.1820000   16.4780000  
O 16.8620000   25.0480000   15.6170000  
O 10.7100000   20.2260000   15.7670000  
O 11.6320000   19.0180000   18.1930000  
H 16.1230000   22.1410000   18.5060000  
H 17.3460000   23.3080000   17.9660000  
H 14.4050000   23.7140000   15.0000000  
H 10.2460000   19.5470000   16.2710000  
H 11.9930000   18.8480000   19.1290000  
H 12.1430000   22.2030000   14.8640000  
