78
010 
C 16.6590000   12.3090000   17.2750000  
C 15.3980000   11.9040000   16.7460000  
C 14.2080000   12.5630000   17.1030000  
C 14.2800000   13.5020000   18.0950000  
C 15.4860000   14.0440000   18.6600000  
C 16.6670000   13.3920000   18.1800000  
C 12.8150000   12.4010000   16.6960000  
C 12.0780000   13.2370000   17.5480000  
N 13.0080000   13.9860000   18.3530000  
O  9.9690000   12.5340000   16.7320000  
C 10.6260000   13.3630000   17.5640000  
O 10.0200000   14.1850000   18.1930000  
O 17.7940000   13.6410000   18.9060000  
O 17.7830000   11.6620000   16.8780000  
H 15.3210000   11.1670000   15.9300000  
H 12.4650000   11.7780000   15.8930000  
H 10.6510000   11.8310000   16.5690000  
H 12.6740000   14.4930000   19.1510000  
H 17.7020000   14.4000000   19.4330000  
H 18.5530000   12.1200000   17.2720000  
C 15.4920000   15.2360000   19.5350000  
C 15.4770000   15.1200000   20.9660000  
C 15.4350000   16.2140000   21.7140000  
C 15.4580000   17.5320000   21.2400000  
C 15.4890000   17.7030000   19.8180000  
C 15.5840000   16.5590000   18.9980000  
C 15.6260000   13.9570000   21.8440000  
C 15.6620000   14.4410000   23.1400000  
N 15.5010000   15.8920000   23.0510000  
O 15.9310000   12.4320000   24.3460000  
C 15.6490000   13.7030000   24.3930000  
O 15.5120000   14.2060000   25.4800000  
O 15.3940000   19.0480000   19.3260000  
O 15.5800000   16.8280000   17.6560000  
H 15.6610000   12.9140000   21.5870000  
H 15.8830000   12.1590000   23.4520000  
H 15.4730000   16.5850000   23.7810000  
H 15.2620000   19.4900000   20.2490000  
H 15.5950000   17.8120000   17.5060000  
C 15.6280000   18.7130000   22.1410000  
C 16.8400000   19.0110000   22.8430000  
C 16.9340000   19.9660000   23.8400000  
C 15.9200000   20.9710000   24.0540000  
C 14.7020000   20.7010000   23.2900000  
C 14.5730000   19.6480000   22.3370000  
C 18.1050000   18.2990000   22.8510000  
C 18.7760000   18.7850000   23.9970000  
N 18.0990000   19.9100000   24.5450000  
O 20.6120000   17.3770000   23.6010000  
C 20.0930000   18.3610000   24.3900000  
O 20.7170000   18.7280000   25.3630000  
O 13.5640000   21.4520000   23.5490000  
O 13.3700000   19.4820000   21.7040000  
H 18.3920000   17.5180000   22.1970000  
H 20.0370000   17.2160000   22.8960000  
H 18.4370000   20.5730000   25.2410000  
H 13.7010000   21.8650000   24.4140000  
H 12.6170000   20.0870000   22.0650000  
C 16.0800000   22.1010000   24.9280000  
C 15.8240000   23.3620000   24.3840000  
C 15.8340000   24.5090000   25.1870000  
C 16.1320000   24.4550000   26.5770000  
C 16.3040000   23.1710000   27.1750000  
C 16.2710000   22.0120000   26.3520000  
C 15.4610000   23.8500000   23.0770000  
C 15.2750000   25.2140000   23.1620000  
N 15.5890000   25.5820000   24.4530000  
O 14.3480000   25.4410000   20.9930000  
C 14.7660000   26.0780000   22.1500000  
O 14.8010000   27.2850000   22.2670000  
O 16.6800000   23.1000000   28.4580000  
O 16.4860000   20.7730000   26.9560000  
H 15.5250000   23.2800000   22.1520000  
H 14.5880000   24.5530000   21.3460000  
H 15.5620000   26.5350000   24.8210000  
H 16.6170000   22.2080000   28.7910000  
H 16.4260000   19.9990000   26.3170000  
H 16.2000000   25.3810000   27.2510000  
