78
010 
C 20.4290000   12.3300000   22.9820000  
C 19.7020000   11.1350000   22.9780000  
C 18.3950000   11.2390000   22.7030000  
C 17.8610000   12.4300000   22.2090000  
C 18.5210000   13.7010000   22.2310000  
C 19.8860000   13.5620000   22.6190000  
C 17.2720000   10.3430000   22.8570000  
C 16.1230000   11.0510000   22.5160000  
N 16.4800000   12.3090000   22.0450000  
O 14.4590000    9.3720000   23.2040000  
C 14.7080000   10.5800000   22.6300000  
O 13.7700000   11.2940000   22.3530000  
O 20.7250000   14.6310000   22.5910000  
O 21.6650000   12.1880000   23.5440000  
H 20.1810000   10.2650000   23.4390000  
H 17.2730000    9.3030000   23.1010000  
H 15.3330000    9.1360000   23.5610000  
H 15.8340000   13.1140000   21.8460000  
H 20.3790000   15.2720000   21.9770000  
H 22.2310000   12.8640000   23.1900000  
C 17.8600000   14.9780000   21.9200000  
C 16.6970000   15.3510000   22.5940000  
C 15.9150000   16.3890000   22.2020000  
C 16.2270000   17.2950000   21.1030000  
C 17.4750000   16.9660000   20.5110000  
C 18.2100000   15.7820000   20.8100000  
C 16.0880000   14.7930000   23.7840000  
C 14.9450000   15.5210000   24.0110000  
N 14.8160000   16.5440000   23.0540000  
O 14.2110000   14.1510000   25.7520000  
C 14.0500000   15.2930000   25.1320000  
O 13.1680000   16.1080000   25.4790000  
O 18.0510000   17.7210000   19.5080000  
O 19.4130000   15.5820000   20.1780000  
H 16.4460000   13.9730000   24.4550000  
H 14.9100000   13.7060000   25.3340000  
H 14.3000000   17.3890000   23.1770000  
H 17.3620000   18.3690000   19.2220000  
H 19.3980000   15.9950000   19.2490000  
C 15.4910000   18.5670000   20.8630000  
C 15.1380000   19.4450000   21.9490000  
C 14.3980000   20.5650000   21.6750000  
C 13.8320000   20.9100000   20.4190000  
C 14.0940000   19.9970000   19.3850000  
C 14.9210000   18.8390000   19.5920000  
C 15.6180000   19.5350000   23.3080000  
C 15.1050000   20.6730000   23.8550000  
N 14.2760000   21.2930000   22.8630000  
O 15.7570000   20.2800000   26.1480000  
C 15.1860000   21.1310000   25.2640000  
O 14.7090000   22.1710000   25.6780000  
O 13.7050000   20.2410000   18.1160000  
O 15.1370000   17.9130000   18.5500000  
H 16.2710000   18.8520000   23.8960000  
H 16.2730000   19.6360000   25.6650000  
H 13.7300000   22.0740000   23.0470000  
H 13.4410000   21.1810000   18.1070000  
H 14.5450000   18.2660000   17.7780000  
C 13.0780000   22.2210000   20.1250000  
C 13.6880000   23.4570000   20.3470000  
C 12.9670000   24.6020000   20.0290000  
C 11.6790000   24.6370000   19.5160000  
C 11.0480000   23.4140000   19.3190000  
C 11.8020000   22.2270000   19.4890000  
C 15.0130000   23.9170000   20.7630000  
C 14.9960000   25.2720000   20.6560000  
N 13.7150000   25.6940000   20.2150000  
O 17.2770000   25.7740000   21.4920000  
C 16.0390000   26.2330000   20.9610000  
O 15.8110000   27.4460000   20.8670000  
O  9.7850000   23.4770000   18.8260000  
O 11.1350000   20.9940000   19.3150000  
H 15.8520000   23.2550000   20.8800000  
H 17.1770000   24.8450000   21.5570000  
H 13.4700000   26.6280000   19.9310000  
H  9.3440000   22.5730000   18.9180000  
H 11.4150000   20.4400000   20.0850000  
H 11.2270000   25.6380000   19.2830000  
