78
010 
C  7.9720000   17.7250000   21.1520000  
C  7.8260000   16.7810000   20.0900000  
C  9.0100000   16.2510000   19.5850000  
C 10.2750000   16.5980000   19.9810000  
C 10.4740000   17.6100000   20.9370000  
C  9.2790000   18.0440000   21.5790000  
C  9.2260000   15.1650000   18.6790000  
C 10.5920000   15.0280000   18.4160000  
N 11.2960000   15.9940000   19.1790000  
O 10.5880000   12.9830000   17.1780000  
C 11.2780000   14.0490000   17.5700000  
O 12.4660000   14.1740000   17.3500000  
O  9.4350000   18.9490000   22.5610000  
O  6.9170000   18.2280000   21.8150000  
H  6.7980000   16.5520000   19.6660000  
H  8.4240000   14.7340000   18.1000000  
H  9.7530000   13.0500000   17.6800000  
H 12.2540000   16.0640000   19.3610000  
H 10.3860000   19.0390000   22.9320000  
H  7.2640000   18.6720000   22.5560000  
C 11.8110000   18.0390000   21.4070000  
C 12.6890000   18.4580000   20.4150000  
C 13.9750000   18.8730000   20.7190000  
C 14.6020000   18.6790000   21.9680000  
C 13.7440000   18.1130000   22.9600000  
C 12.3140000   17.8440000   22.7510000  
C 12.5080000   18.7430000   18.9960000  
C 13.7260000   19.1630000   18.4900000  
N 14.6250000   19.2570000   19.5430000  
O 12.8870000   19.4270000   16.3770000  
C 14.0270000   19.5900000   17.0760000  
O 15.1360000   19.9400000   16.6760000  
O 14.3630000   17.9540000   24.2250000  
O 11.6360000   17.2750000   23.8080000  
H 11.5430000   18.6580000   18.5350000  
H 12.2380000   19.1230000   17.0170000  
H 15.6090000   19.5180000   19.5090000  
H 15.2920000   18.1920000   24.0150000  
H 12.1930000   17.2410000   24.6690000  
C 16.0500000   18.7370000   22.2020000  
C 16.6840000   19.6990000   23.0690000  
C 18.0230000   19.6880000   23.2780000  
C 18.9270000   18.6700000   22.8450000  
C 18.3200000   17.7010000   22.0070000  
C 16.9480000   17.7440000   21.6820000  
C 16.1360000   20.7790000   23.8900000  
C 17.2460000   21.3770000   24.4700000  
N 18.3670000   20.6440000   24.1700000  
O 15.9630000   22.9320000   25.5960000  
C 17.2150000   22.4100000   25.4400000  
O 18.2520000   22.8160000   25.9860000  
O 19.1040000   16.6710000   21.5030000  
O 16.3900000   16.8810000   20.7850000  
H 15.0960000   21.1260000   24.0640000  
H 15.4820000   22.4160000   24.9230000  
H 19.2610000   20.8090000   24.6130000  
H 19.9010000   16.5410000   22.0930000  
H 17.1510000   16.2910000   20.6170000  
C 20.3900000   18.7070000   23.1050000  
C 21.0550000   17.6580000   23.8250000  
C 22.3970000   17.6280000   23.9490000  
C 23.2650000   18.6030000   23.4040000  
C 22.6620000   19.6250000   22.5780000  
C 21.2760000   19.7050000   22.4810000  
C 20.4740000   16.5470000   24.4940000  
C 21.5240000   15.8300000   24.9670000  
N 22.7590000   16.4720000   24.6740000  
O 19.9910000   14.3950000   25.9940000  
C 21.3120000   14.5830000   25.7500000  
O 22.1680000   13.8610000   26.1760000  
O 23.3970000   20.5020000   21.9530000  
O 20.7150000   20.6570000   21.7070000  
H 19.3970000   16.3150000   24.6290000  
H 19.6680000   15.3280000   25.8660000  
H 23.6910000   16.1580000   24.8990000  
H 22.9130000   20.8480000   21.1200000  
H 19.8030000   20.3880000   21.5430000  
H 24.3320000   18.6180000   23.5110000  
