78
010 
C  9.6050000   14.1170000   19.0930000  
C  9.0880000   14.9150000   18.0810000  
C  9.7970000   16.1190000   17.8140000  
C 10.9850000   16.3920000   18.4020000  
C 11.4920000   15.6780000   19.4720000  
C 10.8120000   14.4580000   19.7590000  
C  9.7470000   16.9290000   16.6490000  
C 10.8910000   17.7030000   16.6330000  
N 11.7290000   17.3000000   17.6880000  
O 10.1730000   18.8900000   14.7400000  
C 11.2590000   18.6540000   15.5370000  
O 12.3610000   19.2050000   15.4630000  
O 11.1400000   13.7200000   20.8490000  
O  9.0180000   12.9230000   19.3280000  
H  8.2320000   14.6900000   17.5230000  
H  8.8660000   16.9590000   15.9870000  
H  9.3600000   18.4300000   15.1390000  
H 12.6100000   17.6220000   17.9880000  
H 11.9610000   14.1260000   21.2480000  
H  9.6880000   12.3120000   19.6250000  
C 12.7240000   16.1390000   20.1790000  
C 12.6080000   17.2630000   21.0560000  
C 13.6860000   17.7690000   21.7030000  
C 15.0350000   17.2700000   21.4930000  
C 15.1330000   16.1540000   20.6430000  
C 14.0430000   15.5260000   20.0240000  
C 11.5860000   18.2380000   21.4240000  
C 12.1210000   19.2300000   22.3090000  
N 13.4770000   18.9130000   22.4250000  
O  9.9610000   19.9690000   22.9400000  
C 11.2930000   20.1860000   23.0510000  
O 11.7580000   21.0060000   23.7460000  
O 16.3700000   15.5600000   20.4350000  
O 14.2630000   14.4800000   19.1630000  
H 10.5650000   18.1500000   21.1010000  
H  9.8660000   19.2970000   22.2450000  
H 14.2040000   19.3870000   22.9580000  
H 17.0260000   16.2480000   20.6880000  
H 15.1720000   14.1210000   19.2350000  
C 16.2100000   18.0280000   22.0680000  
C 16.3860000   18.1400000   23.4560000  
C 17.4300000   18.8090000   23.9700000  
C 18.4670000   19.4980000   23.2760000  
C 18.2630000   19.4410000   21.8570000  
C 17.2300000   18.7120000   21.2600000  
C 15.6800000   17.5980000   24.5610000  
C 16.3620000   18.0020000   25.6950000  
N 17.4770000   18.7630000   25.3480000  
O 15.2420000   16.7100000   27.2190000  
C 16.2150000   17.6580000   27.0880000  
O 16.8140000   18.0940000   28.0150000  
O 19.0790000   20.1200000   20.9750000  
O 17.1170000   18.7470000   19.8810000  
H 14.6760000   17.2020000   24.4680000  
H 15.0000000   16.5500000   26.2650000  
H 18.1730000   19.1120000   26.0640000  
H 19.9020000   20.4100000   21.4830000  
H 17.8130000   19.3590000   19.5890000  
C 19.5950000   20.2210000   23.8380000  
C 20.9130000   19.7230000   23.7220000  
C 21.9480000   20.3240000   24.3530000  
C 21.7660000   21.4720000   25.1590000  
C 20.4900000   21.9560000   25.4020000  
C 19.3980000   21.3130000   24.7710000  
C 21.4620000   18.5410000   23.0760000  
C 22.7440000   18.4220000   23.5000000  
N 23.0560000   19.5610000   24.1810000  
O 23.1570000   16.2500000   22.5260000  
C 23.6790000   17.3040000   23.2110000  
O 24.8470000   17.2930000   23.4660000  
O 20.2750000   23.0210000   26.2560000  
O 18.2050000   21.7430000   25.1180000  
H 20.9760000   17.9100000   22.3670000  
H 22.2470000   16.5360000   22.4200000  
H 24.0120000   19.7780000   24.4580000  
H 19.3450000   23.0410000   26.4620000  
H 17.5550000   21.3710000   24.4600000  
H 22.6490000   21.8830000   25.6600000  
