78
010 
C  8.7870000   17.7400000   24.5350000  
C  8.1760000   19.0740000   24.4740000  
C  8.9430000   20.1380000   23.9830000  
C 10.2720000   19.9650000   23.6340000  
C 10.9150000   18.6840000   23.6440000  
C 10.1190000   17.5760000   24.1310000  
C  8.6840000   21.5380000   23.9420000  
C  9.9440000   22.1290000   23.6500000  
N 10.8710000   21.1420000   23.3550000  
O  8.9480000   24.2900000   23.5210000  
C 10.1240000   23.6320000   23.5130000  
O 11.2010000   24.1800000   23.4780000  
O 10.6900000   16.3270000   24.3820000  
O  7.9500000   16.6940000   24.7940000  
H  7.1640000   19.2050000   24.8090000  
H  7.7560000   22.0580000   24.1540000  
H  8.3590000   23.5830000   23.4330000  
H 11.8070000   21.3340000   23.2080000  
H 11.5410000   16.3170000   23.8950000  
H  8.5750000   15.9640000   24.9200000  
C 12.2670000   18.4490000   23.1190000  
C 13.4120000   19.1490000   23.7120000  
C 14.6360000   18.9800000   23.2200000  
C 14.9810000   18.1670000   22.0730000  
C 13.8770000   17.5110000   21.4360000  
C 12.5640000   17.5740000   22.0140000  
C 13.5400000   19.9130000   24.9480000  
C 14.8290000   20.2380000   25.1490000  
N 15.5240000   19.6500000   24.0430000  
O 14.3480000   21.5010000   27.0480000  
C 15.3230000   21.0850000   26.2370000  
O 16.4560000   21.4630000   26.4430000  
O 14.0840000   16.7000000   20.3170000  
O 11.5480000   16.8660000   21.4460000  
H 12.8010000   20.0670000   25.7500000  
H 13.5660000   21.3040000   26.5230000  
H 16.4540000   19.9480000   23.8210000  
H 15.0590000   16.5450000   20.2340000  
H 11.8370000   16.2900000   20.7470000  
C 16.3840000   17.9160000   21.5740000  
C 16.9710000   16.6500000   21.7800000  
C 18.2030000   16.3810000   21.4010000  
C 19.0230000   17.3000000   20.7230000  
C 18.4920000   18.5600000   20.4370000  
C 17.1860000   18.8930000   20.9020000  
C 16.3430000   15.4050000   22.1170000  
C 17.3620000   14.4390000   22.0370000  
N 18.5660000   15.0370000   21.5940000  
O 16.0000000   12.6090000   22.8260000  
C 17.2610000   13.0290000   22.4020000  
O 18.2650000   12.3050000   22.3180000  
O 19.3370000   19.4450000   19.8770000  
O 16.7530000   20.1600000   20.5780000  
H 15.4020000   15.2200000   22.5970000  
H 15.4610000   13.3810000   22.8750000  
H 19.4840000   14.6410000   21.4950000  
H 19.9640000   19.0470000   19.2240000  
H 17.5820000   20.6600000   20.3250000  
C 20.2890000   16.9170000   20.1790000  
C 20.3580000   16.6750000   18.7970000  
C 21.5520000   16.3920000   18.2570000  
C 22.7190000   16.2350000   18.9590000  
C 22.6790000   16.3150000   20.3850000  
C 21.4510000   16.5890000   21.0100000  
C 19.3590000   16.8360000   17.8150000  
C 20.0300000   16.7340000   16.5940000  
N 21.3650000   16.4310000   16.8670000  
O 18.1820000   16.9650000   15.1720000  
C 19.4790000   16.6850000   15.2290000  
O 20.0950000   16.3740000   14.2180000  
O 23.8220000   15.9510000   21.0570000  
O 21.3420000   16.6460000   22.3940000  
H 18.3130000   16.9090000   17.9510000  
H 17.9330000   17.3690000   16.0110000  
H 22.0920000   16.1250000   16.2390000  
H 23.5870000   16.0320000   21.9730000  
H 20.7130000   17.3350000   22.7150000  
H 23.6570000   16.0440000   18.4670000  
