78
010 
C  9.4310000   14.8210000   18.7540000  
C  8.5450000   15.8820000   18.4560000  
C  9.0230000   17.1670000   18.5920000  
C 10.2950000   17.4480000   18.9990000  
C 11.2270000   16.4540000   19.3570000  
C 10.7760000   15.0680000   19.1520000  
C  8.3770000   18.4170000   18.3010000  
C  9.2880000   19.4220000   18.6710000  
N 10.4810000   18.8050000   19.0780000  
O  8.0210000   21.3020000   17.8750000  
C  9.1930000   20.8970000   18.3720000  
O 10.0490000   21.7010000   18.6490000  
O 11.5830000   13.9770000   19.3740000  
O  9.0350000   13.5250000   18.4900000  
H  7.5120000   15.7820000   18.2950000  
H  7.3780000   18.5660000   17.9430000  
H  7.5110000   20.4330000   17.8440000  
H 11.3370000   19.1500000   19.5110000  
H 12.4100000   14.2410000   19.7740000  
H  9.6710000   12.9250000   18.8700000  
C 12.5440000   16.8080000   19.9450000  
C 12.6640000   17.6820000   21.0660000  
C 13.8720000   18.1030000   21.5860000  
C 15.1420000   17.6490000   21.1500000  
C 15.0420000   16.8140000   20.0170000  
C 13.8060000   16.3350000   19.4330000  
C 11.6250000   18.3040000   21.9300000  
C 12.3550000   19.0820000   22.8620000  
N 13.7620000   18.9570000   22.6840000  
O 10.4640000   19.9030000   23.9940000  
C 11.7720000   20.0320000   23.8890000  
O 12.4100000   20.8860000   24.5150000  
O 16.2240000   16.3220000   19.5260000  
O 13.8890000   15.6210000   18.2700000  
H 10.5530000   18.2840000   21.7990000  
H 10.2690000   19.2810000   23.2510000  
H 14.4250000   19.4810000   23.1760000  
H 16.7590000   16.4190000   20.3350000  
H 14.5010000   16.1200000   17.6840000  
C 16.3830000   18.0100000   21.8390000  
C 16.7200000   17.3730000   23.0760000  
C 17.8300000   17.7240000   23.7110000  
C 18.8480000   18.5980000   23.1850000  
C 18.4960000   19.2380000   21.9710000  
C 17.3120000   18.9600000   21.3370000  
C 16.0790000   16.4920000   24.0300000  
C 16.9070000   16.2590000   25.0830000  
N 18.0700000   17.0530000   24.9090000  
O 15.4210000   14.9280000   26.3060000  
C 16.6260000   15.4840000   26.3050000  
O 17.3420000   15.2730000   27.2540000  
O 19.3020000   20.2520000   21.4700000  
O 17.0640000   19.6420000   20.1990000  
H 15.1640000   15.9060000   23.8300000  
H 14.9160000   15.2800000   25.5390000  
H 18.8770000   17.1060000   25.4440000  
H 20.1880000   20.3210000   21.9030000  
H 17.9220000   20.1170000   20.0740000  
C 20.0840000   19.0340000   23.9130000  
C 21.3430000   18.8070000   23.3860000  
C 22.4360000   19.3940000   23.9870000  
C 22.4920000   20.0310000   25.1970000  
C 21.1680000   20.3510000   25.7020000  
C 20.0010000   19.8670000   25.0480000  
C 21.8340000   17.9590000   22.3360000  
C 23.1730000   18.2720000   22.1920000  
N 23.5900000   19.0620000   23.2330000  
O 23.4240000   17.1420000   20.1720000  
C 24.0450000   17.7780000   21.1260000  
O 25.2200000   17.9570000   21.0260000  
O 20.9840000   20.9930000   26.8760000  
O 18.7870000   20.2620000   25.5540000  
H 21.3260000   17.2710000   21.6910000  
H 22.5330000   17.2810000   20.4680000  
H 24.5890000   19.4200000   23.2750000  
H 20.0190000   21.0930000   27.0110000  
H 18.0570000   20.2070000   24.9210000  
H 23.3410000   20.4140000   25.8000000  
