78
010 
C 10.5320000   12.9550000   19.6210000  
C 11.2230000   12.0150000   18.7560000  
C 12.5130000   12.2830000   18.3710000  
C 13.0660000   13.4730000   18.7070000  
C 12.5340000   14.4400000   19.5940000  
C 11.2220000   14.1620000   20.0290000  
C 13.5040000   11.5650000   17.5700000  
C 14.7100000   12.3150000   17.6470000  
N 14.3540000   13.4710000   18.3040000  
O 15.9650000   10.7580000   16.3730000  
C 15.9700000   11.8900000   17.1280000  
O 17.0070000   12.5640000   17.1950000  
O 10.5510000   14.9910000   20.8570000  
O  9.2590000   12.6380000   20.0620000  
H 10.7960000   11.1010000   18.4850000  
H 13.3370000   10.7930000   16.8310000  
H 15.0250000   10.5400000   16.3760000  
H 15.0630000   14.1920000   18.5490000  
H 11.2220000   15.5650000   21.2290000  
H  9.1500000   13.1600000   20.8500000  
C 13.4450000   15.4350000   20.3000000  
C 13.5920000   16.7080000   19.6990000  
C 14.5220000   17.5400000   20.2280000  
C 15.3190000   17.2720000   21.3650000  
C 15.1460000   16.0060000   21.9500000  
C 14.2070000   15.1600000   21.4250000  
C 12.9790000   17.4160000   18.5810000  
C 13.6710000   18.6050000   18.4320000  
N 14.7370000   18.6160000   19.3390000  
O 12.1970000   19.3430000   16.7300000  
C 13.3520000   19.5900000   17.3530000  
O 14.0290000   20.5160000   17.0060000  
O 15.8720000   15.6960000   23.0240000  
O 14.0830000   13.9630000   22.0680000  
H 12.1700000   17.0940000   17.9820000  
H 11.7400000   18.6730000   17.2990000  
H 15.4970000   19.2700000   19.2540000  
H 16.4240000   16.4110000   23.3320000  
H 14.5470000   14.1450000   22.8510000  
C 16.2930000   18.2830000   21.9840000  
C 15.7050000   19.3490000   22.7750000  
C 16.5220000   20.3320000   23.3540000  
C 17.8950000   20.3460000   23.3380000  
C 18.5220000   19.2290000   22.6410000  
C 17.7070000   18.2310000   22.0200000  
C 14.3620000   19.7120000   23.1450000  
C 14.4140000   20.9520000   23.8020000  
N 15.7410000   21.3490000   23.8940000  
O 12.0440000   21.2250000   23.9760000  
C 13.2270000   21.7490000   24.3420000  
O 13.3060000   22.7470000   24.9740000  
O 19.8910000   19.2260000   22.5350000  
O 18.3710000   17.0990000   21.5920000  
H 13.4920000   19.1730000   22.9610000  
H 12.3020000   20.4550000   23.4320000  
H 16.0520000   22.2010000   24.2990000  
H 20.2510000   20.0810000   22.8450000  
H 19.3410000   17.3540000   21.7010000  
C 18.7210000   21.4210000   23.9290000  
C 18.9330000   21.4770000   25.3340000  
C 19.7990000   22.3560000   25.8550000  
C 20.3050000   23.3960000   25.1180000  
C 20.0520000   23.3920000   23.7110000  
C 19.3320000   22.3560000   23.0780000  
C 18.3110000   20.8020000   26.4570000  
C 18.7450000   21.4580000   27.6140000  
N 19.7930000   22.3240000   27.2240000  
O 17.5940000   20.0350000   29.1460000  
C 18.5000000   20.9980000   29.0040000  
O 18.9930000   21.5580000   29.9540000  
O 20.4180000   24.4520000   22.9700000  
O 19.0530000   22.3670000   21.7670000  
H 17.6020000   20.0190000   26.5270000  
H 17.2250000   19.9130000   28.2600000  
H 20.2700000   22.8730000   27.9110000  
H 20.2740000   24.1700000   22.0270000  
H 18.5750000   21.5900000   21.5540000  
H 20.9170000   24.2280000   25.4060000  
