78
010 
C 19.0290000   12.7940000   25.7340000  
C 19.1190000   11.5310000   25.0950000  
C 18.8170000   11.5250000   23.6890000  
C 18.4060000   12.6310000   23.0380000  
C 18.1120000   13.8990000   23.6280000  
C 18.3940000   13.8900000   25.0310000  
C 18.7550000   10.4170000   22.7750000  
C 18.2080000   10.9300000   21.5810000  
N 17.9960000   12.3060000   21.7620000  
O 18.5600000    8.9080000   20.6070000  
C 18.0970000   10.1320000   20.3340000  
O 17.6520000   10.4340000   19.2330000  
O 18.1910000   15.0430000   25.7280000  
O 19.1620000   12.8610000   27.0850000  
H 19.5170000   10.6480000   25.5690000  
H 19.0760000    9.3880000   23.0420000  
H 19.1660000    8.9170000   21.3640000  
H 17.6740000   13.0300000   21.0720000  
H 17.7760000   15.6990000   25.1180000  
H 18.5320000   13.5510000   27.5220000  
C 17.5510000   15.0640000   22.9470000  
C 16.1780000   15.1710000   22.7120000  
C 15.6300000   16.3720000   22.2630000  
C 16.3950000   17.4810000   21.7570000  
C 17.7990000   17.3480000   22.0540000  
C 18.3830000   16.2350000   22.6410000  
C 15.1270000   14.2430000   22.8800000  
C 13.9800000   14.8620000   22.3680000  
N 14.3390000   16.1280000   21.9220000  
O 12.5840000   12.9810000   22.5670000  
C 12.6000000   14.2940000   22.1650000  
O 11.5650000   14.9050000   21.7800000  
O 18.6290000   18.3850000   21.8020000  
O 19.6490000   16.1890000   22.8530000  
H 15.1360000   13.2010000   23.1810000  
H 13.4730000   12.6570000   22.8660000  
H 13.7370000   16.8400000   21.4940000  
H 18.1400000   19.1570000   21.5930000  
H 19.9520000   17.1180000   22.8360000  
C 15.7570000   18.7510000   21.1820000  
C 14.7030000   19.5450000   21.7440000  
C 14.2530000   20.7070000   21.1950000  
C 14.6620000   21.2260000   20.0000000  
C 15.6490000   20.4740000   19.3070000  
C 16.2370000   19.2930000   19.8930000  
C 14.1160000   19.4300000   23.0070000  
C 13.1040000   20.3740000   23.0670000  
N 13.2360000   21.2500000   21.9850000  
O 12.2910000   19.5610000   25.1520000  
C 12.2650000   20.6040000   24.2560000  
O 11.5740000   21.5800000   24.4950000  
O 16.2090000   21.0490000   18.1400000  
O 17.2160000   18.5980000   19.1530000  
H 14.4860000   18.7750000   23.8060000  
H 12.6370000   18.9020000   24.6130000  
H 12.8100000   22.2020000   21.9040000  
H 15.7620000   21.8420000   17.9540000  
H 17.3120000   19.0880000   18.3210000  
C 14.0500000   22.4510000   19.4840000  
C 14.1230000   23.6840000   20.2080000  
C 13.4260000   24.7950000   19.8650000  
C 12.6550000   24.8750000   18.7100000  
C 12.5300000   23.7240000   17.9160000  
C 13.1960000   22.4700000   18.2870000  
C 14.6630000   23.9010000   21.4890000  
C 14.4180000   25.2070000   21.7750000  
N 13.6790000   25.7830000   20.7500000  
O 15.5810000   25.2950000   23.9260000  
C 14.8890000   25.9820000   22.9930000  
O 14.6030000   27.1280000   23.1830000  
O 11.6470000   23.7770000   16.8720000  
O 13.0880000   21.3990000   17.4860000  
H 15.0680000   23.1290000   22.1080000  
H 15.8750000   24.5600000   23.3010000  
H 13.4840000   26.7530000   20.7690000  
H 11.2670000   22.8990000   16.7490000  
H 13.2140000   20.6320000   18.0220000  
H 12.2130000   25.8220000   18.4610000  
