78
010 
C 10.1740000   20.3380000   26.4870000  
C 10.7760000   20.6330000   27.7540000  
C 12.1550000   20.5430000   27.8730000  
C 12.8890000   20.1860000   26.7890000  
C 12.3840000   19.8040000   25.4900000  
C 10.9460000   19.9210000   25.3600000  
C 13.0170000   20.7850000   29.0030000  
C 14.3230000   20.5480000   28.5290000  
N 14.2000000   20.2110000   27.1390000  
O 15.3640000   20.7980000   30.5880000  
C 15.5400000   20.7040000   29.2850000  
O 16.6580000   20.7560000   28.8000000  
O 10.2690000   19.7350000   24.1930000  
O  8.8370000   20.3390000   26.3980000  
H 10.1980000   20.8740000   28.6520000  
H 12.7580000   20.9660000   30.0690000  
H 14.4910000   20.4010000   30.7240000  
H 14.8640000   19.9150000   26.4950000  
H 10.9800000   19.7410000   23.5310000  
H  8.5650000   20.2800000   25.4730000  
C 13.2920000   19.2700000   24.3630000  
C 13.9780000   18.1040000   24.4930000  
C 14.7860000   17.6270000   23.5060000  
C 15.0100000   18.3430000   22.2830000  
C 14.3500000   19.5670000   22.1380000  
C 13.3870000   19.9840000   23.0960000  
C 14.0170000   17.0960000   25.5600000  
C 14.8840000   16.0500000   25.1400000  
N 15.3930000   16.4360000   23.8540000  
O 14.6770000   14.7860000   27.2340000  
C 15.2300000   14.8530000   25.9610000  
O 15.9900000   13.9610000   25.6100000  
O 14.7120000   20.4010000   21.0730000  
O 12.7680000   21.1900000   22.8980000  
H 13.4660000   17.2060000   26.4780000  
H 14.1590000   15.5960000   27.3670000  
H 16.2760000   16.1020000   23.4200000  
H 15.4210000   19.9200000   20.5640000  
H 13.1780000   21.5980000   22.1250000  
C 15.9520000   17.8070000   21.3230000  
C 15.5340000   17.0490000   20.1990000  
C 16.5150000   16.6520000   19.2930000  
C 17.8640000   17.0160000   19.3430000  
C 18.2880000   17.5910000   20.5760000  
C 17.3280000   18.0370000   21.5380000  
C 14.3140000   16.6200000   19.5690000  
C 14.5550000   16.0050000   18.3720000  
N 15.9590000   16.1040000   18.1730000  
O 12.3970000   15.1160000   17.9100000  
C 13.6050000   15.3460000   17.4160000  
O 13.8700000   15.0230000   16.2720000  
O 19.6510000   17.7120000   20.8260000  
O 17.7990000   18.8150000   22.5380000  
H 13.3660000   16.8540000   20.0120000  
H 12.3730000   15.4790000   18.8530000  
H 16.3870000   15.9590000   17.2610000  
H 20.1530000   17.7670000   19.9690000  
H 18.7320000   19.1380000   22.3540000  
C 18.8040000   16.6500000   18.2950000  
C 18.8050000   17.3570000   17.0880000  
C 19.6880000   17.0880000   16.0530000  
C 20.7020000   16.2110000   16.2020000  
C 20.7470000   15.4260000   17.3650000  
C 19.8080000   15.6480000   18.4390000  
C 17.9260000   18.3610000   16.5750000  
C 18.3800000   18.7400000   15.3150000  
N 19.3990000   17.9040000   14.9990000  
O 16.5930000   20.1920000   14.8830000  
C 17.7160000   19.6460000   14.3820000  
O 18.1470000   19.9440000   13.2970000  
O 21.6980000   14.4110000   17.2880000  
O 19.8240000   14.8800000   19.5560000  
H 17.0580000   18.7490000   17.0450000  
H 16.3810000   19.7180000   15.6990000  
H 19.8130000   17.8770000   14.0890000  
H 21.8860000   13.9090000   18.1400000  
H 18.9180000   14.9260000   19.8970000  
H 21.5390000   16.0930000   15.5240000  
