78
010 
C 13.5030000   16.7060000   29.0900000  
C 14.2250000   17.5720000   29.8530000  
C 15.1580000   18.3820000   29.3010000  
C 15.2300000   18.4040000   27.9260000  
C 14.4910000   17.5560000   27.0580000  
C 13.5180000   16.7460000   27.6840000  
C 16.0200000   19.4340000   29.7660000  
C 16.4920000   20.0630000   28.5870000  
N 15.9660000   19.4380000   27.4620000  
O 17.9810000   21.5240000   29.7950000  
C 17.5120000   21.1750000   28.6140000  
O 17.7430000   21.8300000   27.6090000  
O 12.6670000   15.9390000   26.9450000  
O 12.5880000   15.9230000   29.7820000  
H 14.0460000   17.6140000   30.9600000  
H 16.1670000   19.6270000   30.7640000  
H 17.6170000   20.8300000   30.3480000  
H 16.2490000   19.6440000   26.5310000  
H 12.4090000   16.4160000   26.1310000  
H 12.1270000   15.4060000   29.1130000  
C 14.6890000   17.6490000   25.5780000  
C 15.6610000   16.8360000   24.9040000  
C 15.8500000   16.8470000   23.5560000  
C 15.1490000   17.6990000   22.6970000  
C 14.1370000   18.5090000   23.3040000  
C 13.9410000   18.4740000   24.7070000  
C 16.5790000   15.7940000   25.4320000  
C 17.3280000   15.3930000   24.3170000  
N 16.9170000   16.1100000   23.1740000  
O 18.7550000   14.0980000   25.6020000  
C 18.4360000   14.4680000   24.3170000  
O 19.0390000   14.1270000   23.3370000  
O 13.4990000   19.3590000   22.5830000  
O 12.8240000   19.0450000   25.3470000  
H 16.5970000   15.3600000   26.4350000  
H 18.2630000   14.7870000   26.1430000  
H 17.4180000   16.1850000   22.3230000  
H 13.7170000   19.2050000   21.6230000  
H 12.1720000   19.4700000   24.7300000  
C 15.6110000   17.8200000   21.2600000  
C 14.8700000   17.3620000   20.1450000  
C 15.2730000   17.7960000   18.8720000  
C 16.4910000   18.4380000   18.5040000  
C 17.3190000   18.7540000   19.6380000  
C 16.7820000   18.5690000   20.9460000  
C 13.7420000   16.4420000   20.0110000  
C 13.5850000   16.2800000   18.6470000  
N 14.4460000   17.1750000   17.9190000  
O 11.8510000   14.5910000   18.7730000  
C 12.5500000   15.4090000   17.9540000  
O 12.3790000   15.4430000   16.7240000  
O 18.5030000   19.4240000   19.4910000  
O 17.5160000   19.0280000   22.0650000  
H 13.2160000   15.9540000   20.8530000  
H 12.2540000   14.8660000   19.6340000  
H 14.4080000   17.3340000   16.8870000  
H 18.6940000   19.5900000   18.5050000  
H 18.2860000   19.5280000   21.8480000  
C 16.8540000   18.5580000   17.0590000  
C 16.0590000   19.1890000   16.1140000  
C 16.4810000   19.5240000   14.8250000  
C 17.7300000   19.2140000   14.3410000  
C 18.5280000   18.5300000   15.2220000  
C 18.1150000   18.1590000   16.5420000  
C 14.7520000   19.7430000   16.2120000  
C 14.3610000   20.3010000   14.9890000  
N 15.4250000   20.0740000   14.1040000  
O 12.1810000   21.1100000   15.4970000  
C 13.1160000   21.0160000   14.5440000  
O 13.0420000   21.4920000   13.4240000  
O 19.7180000   18.1300000   14.7420000  
O 18.9540000   17.3730000   17.2860000  
H 14.1490000   19.8540000   17.1180000  
H 12.4890000   20.3890000   16.0600000  
H 15.3800000   20.2520000   13.1020000  
H 20.2180000   17.6130000   15.3610000  
H 18.5560000   17.2930000   18.1490000  
H 17.9280000   19.4300000   13.3140000  
