78
010 
C 17.9570000   12.2580000   18.2450000  
C 17.0370000   11.2270000   18.1690000  
C 15.7890000   11.3240000   18.7590000  
C 15.4240000   12.4910000   19.2870000  
C 16.2150000   13.6600000   19.3250000  
C 17.5540000   13.4620000   18.8710000  
C 14.6920000   10.4050000   18.9190000  
C 13.6400000   11.1410000   19.2770000  
N 14.0710000   12.5060000   19.5150000  
O 12.0250000    9.3290000   19.3430000  
C 12.2140000   10.6790000   19.3800000  
O 11.2090000   11.4240000   19.3390000  
O 18.5230000   14.3910000   19.2290000  
O 19.3050000   12.0220000   17.9320000  
H 17.3090000   10.1810000   17.8780000  
H 14.6980000    9.3630000   18.6000000  
H 12.9170000    8.9420000   19.3930000  
H 13.4280000   13.1840000   19.9550000  
H 18.1790000   15.0700000   19.8390000  
H 19.7630000   12.9360000   17.8240000  
C 15.8390000   14.9420000   19.9630000  
C 15.5750000   14.9770000   21.3220000  
C 15.4570000   16.1850000   21.9440000  
C 15.4640000   17.4440000   21.3290000  
C 15.6330000   17.4260000   19.8990000  
C 15.8070000   16.1480000   19.2310000  
C 15.5430000   14.0060000   22.3740000  
C 15.1700000   14.6990000   23.5350000  
N 15.1020000   16.0460000   23.2800000  
O 14.8830000   12.7510000   24.7310000  
C 14.8870000   14.0440000   24.8260000  
O 14.4270000   14.6500000   25.7640000  
O 15.6570000   18.5620000   19.1610000  
O 15.9220000   16.0470000   17.8950000  
H 15.6610000   12.9210000   22.1910000  
H 15.1580000   12.6260000   23.8230000  
H 15.0260000   16.7730000   23.9970000  
H 15.6740000   19.3360000   19.7370000  
H 15.6500000   16.9340000   17.5760000  
C 15.3010000   18.7340000   22.1810000  
C 16.3920000   19.6580000   22.2060000  
C 16.3570000   20.7580000   22.9920000  
C 15.2970000   21.1570000   23.8810000  
C 14.1930000   20.2340000   23.8680000  
C 14.1560000   19.0340000   23.0770000  
C 17.7080000   19.7160000   21.5700000  
C 18.4170000   20.7400000   22.1620000  
N 17.5560000   21.4460000   22.9540000  
O 20.3680000   20.4260000   20.7770000  
C 19.8220000   21.0950000   21.7960000  
O 20.4570000   22.0380000   22.2910000  
O 12.9940000   20.4710000   24.5020000  
O 13.0700000   18.2030000   23.0760000  
H 18.1700000   18.9390000   20.9000000  
H 19.6060000   19.9100000   20.6100000  
H 17.7310000   22.3040000   23.4850000  
H 12.9250000   21.4330000   24.7470000  
H 12.3840000   18.4760000   23.7650000  
C 15.2770000   22.5190000   24.4840000  
C 14.7290000   23.6600000   23.8340000  
C 14.8300000   24.9080000   24.4340000  
C 15.3070000   25.0440000   25.7700000  
C 15.7520000   23.8630000   26.4020000  
C 15.7140000   22.5920000   25.8030000  
C 14.3160000   23.9420000   22.4480000  
C 14.2810000   25.3090000   22.3000000  
N 14.4860000   25.9340000   23.6110000  
O 14.0640000   25.4290000   19.8780000  
C 14.1340000   26.0850000   21.0200000  
O 14.1210000   27.2430000   21.1160000  
O 16.1060000   23.8880000   27.7230000  
O 16.0280000   21.4460000   26.4650000  
H 14.0980000   23.2130000   21.7360000  
H 14.0960000   24.5030000   20.0960000  
H 14.6850000   26.9460000   23.7530000  
H 16.1670000   22.9600000   27.9920000  
H 15.6070000   20.6820000   26.0260000  
H 15.3210000   25.9640000   26.2750000  
