78
010 
C 12.3970000   19.6500000   28.2640000  
C 13.1820000   19.3490000   29.4290000  
C 14.4650000   18.8090000   29.1610000  
C 14.8890000   18.6210000   27.8650000  
C 14.1950000   19.0120000   26.7060000  
C 12.9150000   19.5860000   26.9750000  
C 15.5160000   18.3150000   30.0380000  
C 16.5700000   17.9310000   29.2020000  
N 16.1360000   18.1470000   27.8980000  
O 18.2510000   17.7710000   30.8920000  
C 17.9850000   17.6160000   29.5740000  
O 18.8060000   17.2440000   28.8070000  
O 12.0650000   19.9130000   25.9020000  
O 11.1360000   20.1360000   28.4420000  
H 12.7480000   19.3710000   30.4940000  
H 15.5640000   18.5320000   31.1330000  
H 17.4290000   18.0130000   31.3850000  
H 16.7980000   18.2100000   27.1240000  
H 12.3000000   19.3490000   25.1370000  
H 10.9780000   20.6130000   27.5730000  
C 14.6280000   18.7880000   25.3400000  
C 14.6810000   17.4910000   24.7430000  
C 15.2240000   17.2710000   23.5080000  
C 15.6420000   18.3190000   22.6010000  
C 15.5740000   19.6040000   23.2660000  
C 15.0410000   19.8580000   24.5290000  
C 14.4300000   16.2230000   25.3350000  
C 14.7160000   15.2890000   24.3460000  
N 15.1720000   15.9380000   23.1790000  
O 14.0550000   13.2310000   25.6140000  
C 14.6780000   13.8170000   24.4960000  
O 15.1160000   13.1280000   23.5890000  
O 16.1690000   20.6930000   22.6930000  
O 15.1110000   21.0930000   25.1590000  
H 13.8440000   16.0660000   26.2080000  
H 13.6380000   13.9500000   26.1310000  
H 15.5450000   15.5180000   22.3380000  
H 16.4470000   20.3610000   21.8140000  
H 15.7140000   21.6920000   24.7020000  
C 15.9760000   18.1160000   21.2070000  
C 15.1520000   18.6940000   20.1770000  
C 15.4140000   18.3700000   18.8700000  
C 16.3730000   17.4310000   18.4170000  
C 17.2450000   16.8820000   19.3940000  
C 16.9890000   17.2290000   20.7600000  
C 13.8480000   19.3650000   20.1920000  
C 13.4650000   19.4570000   18.8040000  
N 14.4060000   18.8160000   18.0090000  
O 11.3700000   20.6730000   19.1420000  
C 12.1360000   20.0270000   18.2960000  
O 11.7830000   19.8640000   17.1190000  
O 18.0890000   15.8270000   19.0320000  
O 17.7730000   16.7270000   21.7110000  
H 13.3060000   19.6650000   21.0490000  
H 11.9920000   20.7830000   19.8450000  
H 14.2570000   18.7130000   17.0080000  
H 18.1540000   15.8720000   18.0520000  
H 18.1640000   15.9940000   21.2760000  
C 16.5820000   17.0420000   17.0160000  
C 17.5370000   17.6070000   16.1410000  
C 17.4630000   17.3740000   14.7530000  
C 16.3480000   16.6530000   14.1840000  
C 15.4120000   16.0720000   15.0470000  
C 15.5420000   16.2280000   16.4580000  
C 18.4790000   18.6260000   16.3710000  
C 18.8810000   19.0530000   15.0950000  
N 18.4440000   18.0980000   14.1050000  
O 20.0530000   21.0440000   15.8660000  
C 19.6860000   20.2680000   14.7760000  
O 20.1460000   20.4970000   13.6550000  
O 14.3470000   15.3430000   14.5510000  
O 14.6550000   15.7620000   17.3240000  
H 18.7250000   19.1400000   17.3080000  
H 19.5860000   20.7700000   16.6290000  
H 18.5950000   18.2100000   13.0790000  
H 13.7490000   15.1880000   15.2800000  
H 14.5810000   16.3450000   18.0580000  
H 16.2220000   16.5380000   13.1030000  
