78
010 
C 18.8300000   14.4310000   27.3680000  
C 19.4880000   13.3710000   26.8180000  
C 19.2900000   13.0300000   25.4410000  
C 18.6640000   13.9440000   24.6390000  
C 18.0400000   15.1660000   25.0970000  
C 18.1520000   15.3350000   26.5230000  
C 19.5520000   11.9090000   24.7120000  
C 19.0700000   12.1710000   23.4350000  
N 18.6490000   13.4980000   23.3140000  
O 19.2810000    9.9240000   22.6290000  
C 18.9890000   11.2290000   22.3020000  
O 18.7100000   11.5110000   21.1590000  
O 17.4750000   16.3290000   27.1540000  
O 18.8980000   14.6640000   28.7560000  
H 20.0180000   12.7080000   27.4850000  
H 19.8200000   10.8940000   24.9480000  
H 19.5700000    9.8230000   23.5660000  
H 18.5230000   14.0280000   22.4460000  
H 17.4070000   17.0570000   26.5190000  
H 18.4950000   15.5500000   28.9730000  
C 17.2610000   16.0720000   24.2030000  
C 16.1360000   15.5530000   23.6070000  
C 15.4950000   16.2810000   22.6350000  
C 15.8230000   17.5520000   22.2160000  
C 16.9770000   18.1110000   22.8790000  
C 17.5970000   17.3960000   23.9240000  
C 15.5070000   14.3040000   23.6110000  
C 14.4330000   14.3720000   22.7830000  
N 14.4410000   15.6250000   22.1310000  
O 13.6450000   12.2160000   23.4880000  
C 13.3670000   13.3320000   22.7140000  
O 12.4100000   13.3760000   21.9490000  
O 17.1940000   19.4120000   22.5690000  
O 18.5970000   18.0240000   24.6220000  
H 15.7950000   13.4180000   24.1990000  
H 14.3360000   12.5240000   24.1230000  
H 13.7070000   15.9750000   21.5240000  
H 16.3290000   19.5740000   22.1450000  
H 18.6060000   18.8460000   24.2160000  
C 15.0200000   18.3690000   21.3020000  
C 14.0190000   19.1970000   21.7340000  
C 13.4100000   20.0740000   20.8230000  
C 13.8700000   20.2510000   19.4830000  
C 14.8650000   19.3380000   19.0150000  
C 15.4320000   18.3880000   19.9030000  
C 13.4830000   19.5430000   23.0080000  
C 12.6440000   20.6390000   22.8210000  
N 12.5000000   20.9130000   21.4580000  
O 12.2350000   20.8590000   25.0440000  
C 11.9890000   21.3810000   23.8630000  
O 11.2950000   22.3640000   23.7060000  
O 15.4500000   19.4560000   17.8250000  
O 16.4650000   17.5250000   19.5670000  
H 13.8000000   19.0580000   23.9490000  
H 12.7460000   20.1190000   24.7770000  
H 12.0440000   21.6910000   20.9840000  
H 14.8460000   20.0600000   17.3890000  
H 16.4990000   17.3180000   18.5560000  
C 13.3810000   21.3930000   18.6360000  
C 14.2210000   22.5110000   18.3570000  
C 13.7510000   23.6030000   17.6490000  
C 12.4260000   23.6780000   17.1650000  
C 11.5090000   22.6570000   17.5430000  
C 11.9770000   21.4870000   18.2290000  
C 15.6240000   22.6940000   18.5370000  
C 15.9210000   23.9260000   17.9610000  
N 14.7870000   24.5420000   17.4680000  
O 18.1260000   23.7690000   18.6870000  
C 17.2120000   24.5510000   18.0540000  
O 17.5600000   25.6240000   17.6160000  
O 10.2650000   22.6510000   17.0770000  
O 11.0940000   20.4490000   18.4490000  
H 16.3210000   21.9600000   18.9040000  
H 17.5970000   22.9520000   18.8620000  
H 14.7770000   25.4590000   17.0610000  
H  9.8700000   21.8330000   17.2820000  
H 11.5260000   19.8480000   19.0750000  
H 12.1220000   24.4510000   16.5290000  
