78
010 
C 14.1950000   16.6300000   29.1230000  
C 13.2380000   17.5850000   29.6370000  
C 12.5890000   18.3640000   28.6450000  
C 12.8860000   18.3060000   27.2940000  
C 13.7890000   17.3560000   26.7410000  
C 14.4190000   16.5020000   27.7180000  
C 11.6050000   19.4330000   28.7970000  
C 11.4890000   20.0290000   27.5370000  
N 12.2210000   19.2860000   26.5850000  
O  9.9690000   21.7070000   28.1570000  
C 10.7940000   21.2660000   27.2240000  
O 10.9170000   21.8880000   26.1780000  
O 15.2810000   15.5240000   27.2300000  
O 14.8670000   15.7600000   29.9600000  
H 12.8900000   17.5670000   30.6820000  
H 11.3020000   19.8230000   29.7200000  
H 10.0830000   21.1570000   28.9830000  
H 12.4420000   19.5790000   25.6550000  
H 15.3970000   15.7120000   26.3030000  
H 15.4650000   15.2000000   29.5090000  
C 14.1580000   17.4930000   25.3450000  
C 15.3100000   18.1960000   24.8880000  
C 15.6050000   18.2130000   23.5230000  
C 14.8220000   17.5350000   22.5550000  
C 13.7440000   16.7200000   23.0080000  
C 13.4080000   16.7760000   24.3570000  
C 16.3130000   19.0440000   25.5410000  
C 16.9260000   19.7080000   24.4390000  
N 16.4840000   19.1790000   23.1930000  
O 18.2160000   21.1380000   25.8590000  
C 17.8980000   20.8450000   24.5690000  
O 18.5030000   21.3500000   23.6340000  
O 12.9350000   16.1030000   22.0650000  
O 12.1710000   16.2110000   24.7300000  
H 16.4200000   19.1660000   26.6020000  
H 17.9450000   20.2930000   26.1680000  
H 16.7020000   19.5380000   22.2570000  
H 13.4730000   16.0650000   21.2190000  
H 11.8200000   15.7130000   23.9030000  
C 15.1060000   17.6370000   21.0790000  
C 16.3480000   17.1940000   20.5920000  
C 16.7400000   17.4640000   19.3120000  
C 16.0540000   18.1630000   18.3120000  
C 14.7720000   18.5520000   18.7900000  
C 14.3010000   18.3730000   20.1590000  
C 17.3950000   16.4300000   21.2370000  
C 18.5500000   16.5450000   20.4130000  
N 18.0990000   17.1530000   19.2020000  
O 19.8110000   15.2360000   21.8510000  
C 19.7800000   15.8570000   20.6810000  
O 20.6910000   15.7900000   19.9000000  
O 13.8900000   19.1480000   17.9410000  
O 13.0650000   19.0040000   20.4720000  
H 17.3900000   16.0500000   22.2330000  
H 18.9250000   15.4190000   22.0590000  
H 18.5970000   17.3580000   18.3550000  
H 14.3210000   19.0840000   17.1160000  
H 12.6920000   19.2420000   19.6160000  
C 16.6480000   18.5950000   17.0950000  
C 17.0240000   17.6790000   16.0770000  
C 17.5440000   18.1640000   14.8790000  
C 17.5950000   19.5470000   14.6360000  
C 17.3500000   20.4870000   15.6470000  
C 16.9020000   19.9990000   16.9260000  
C 17.0130000   16.2550000   15.9730000  
C 17.4390000   15.9450000   14.6910000  
N 17.8010000   17.0980000   13.9810000  
O 17.3200000   13.6180000   15.0440000  
C 17.6720000   14.6220000   14.1860000  
O 18.0620000   14.3880000   13.0460000  
O 17.5360000   21.8780000   15.3930000  
O 16.6260000   20.7670000   18.0310000  
H 16.5910000   15.5930000   16.6860000  
H 16.9620000   14.0880000   15.8280000  
H 18.2440000   17.1640000   13.1010000  
H 17.0370000   22.4480000   16.0440000  
H 16.4070000   20.1550000   18.7380000  
H 18.0690000   19.8000000   13.7250000  
