78
010 
C 12.2390000   18.2980000   28.4250000  
C 11.2570000   19.2770000   28.4140000  
C 11.1130000   20.0280000   27.2400000  
C 11.8480000   19.7500000   26.1200000  
C 12.8850000   18.8330000   26.0610000  
C 13.1140000   18.1260000   27.3210000  
C 10.1780000   21.0710000   26.8590000  
C 10.4840000   21.3940000   25.5280000  
N 11.4880000   20.5730000   25.0740000  
O  8.7940000   23.1080000   25.4620000  
C  9.7380000   22.4420000   24.7840000  
O  9.9430000   22.5670000   23.5670000  
O 14.1750000   17.1970000   27.4110000  
O 12.1510000   17.4730000   29.4810000  
H 10.6260000   19.5160000   29.2890000  
H  9.4430000   21.5430000   27.4640000  
H  8.6650000   22.6530000   26.3040000  
H 11.7740000   20.4600000   24.1520000  
H 14.7300000   17.3020000   26.6380000  
H 12.8590000   16.7820000   29.5060000  
C 13.7320000   18.5210000   24.8950000  
C 15.1210000   18.6640000   25.0550000  
C 15.9110000   18.5710000   23.8970000  
C 15.4990000   18.0690000   22.6290000  
C 14.0970000   17.9360000   22.5080000  
C 13.2360000   18.2160000   23.6190000  
C 16.0590000   19.1750000   26.0720000  
C 17.3380000   19.0700000   25.5850000  
N 17.2330000   18.7600000   24.2170000  
O 18.4990000   19.6540000   27.5700000  
C 18.5860000   19.5680000   26.2230000  
O 19.6530000   19.8010000   25.6490000  
O 13.5220000   17.6280000   21.3080000  
O 11.8690000   18.0400000   23.5070000  
H 15.7320000   19.4250000   27.0840000  
H 17.6890000   19.2290000   27.9310000  
H 18.0080000   18.6900000   23.4970000  
H 14.1240000   17.0260000   20.8560000  
H 11.6420000   17.5010000   22.7820000  
C 16.3520000   17.8800000   21.4760000  
C 16.8300000   16.5970000   21.1070000  
C 17.5500000   16.3940000   19.9480000  
C 17.8430000   17.4650000   19.0550000  
C 17.4010000   18.7820000   19.4230000  
C 16.6070000   18.9510000   20.5770000  
C 16.8300000   15.2620000   21.7550000  
C 17.5350000   14.3400000   20.9910000  
N 17.8750000   15.0010000   19.7990000  
O 17.6500000   12.5760000   22.6010000  
C 17.9100000   12.9560000   21.2810000  
O 18.4960000   12.1710000   20.5700000  
O 17.4960000   19.7790000   18.5450000  
O 16.1880000   20.1890000   20.8580000  
H 16.4060000   15.0820000   22.7440000  
H 17.0460000   13.2330000   22.9080000  
H 18.5450000   14.6720000   19.1300000  
H 17.8140000   19.3760000   17.7420000  
H 16.5390000   20.7230000   20.1450000  
C 18.5320000   17.2370000   17.6940000  
C 17.7040000   17.2650000   16.5310000  
C 18.2600000   17.1740000   15.2590000  
C 19.6220000   16.8940000   15.1090000  
C 20.4190000   17.1050000   16.2310000  
C 19.8920000   17.1190000   17.5420000  
C 16.2760000   17.2820000   16.3920000  
C 16.0500000   17.2010000   15.0420000  
N 17.2640000   17.1830000   14.3380000  
O 13.6720000   17.0400000   15.1880000  
C 14.7760000   17.0870000   14.4100000  
O 14.7030000   17.0810000   13.1820000  
O 21.7670000   17.1400000   15.9780000  
O 20.7610000   17.2510000   18.5860000  
H 15.5370000   17.2590000   17.1590000  
H 13.9140000   17.2820000   16.0570000  
H 17.4530000   17.2230000   13.3610000  
H 22.1540000   17.1660000   16.9040000  
H 20.2490000   17.1430000   19.4070000  
H 20.1470000   16.8900000   14.1700000  
