78
010 
C 12.3930000   12.2070000   18.1070000  
C 13.0900000   10.9980000   18.5360000  
C 14.2050000   11.1290000   19.4060000  
C 14.4810000   12.2750000   20.1250000  
C 13.8780000   13.4970000   19.8010000  
C 12.8630000   13.4290000   18.7570000  
C 15.2670000   10.2370000   19.8240000  
C 16.1900000   10.9430000   20.6090000  
N 15.6430000   12.1820000   20.8450000  
O 17.5930000    9.1380000   21.0450000  
C 17.2760000   10.3980000   21.3400000  
O 17.9830000   11.0700000   22.1420000  
O 12.2650000   14.5350000   18.3060000  
O 11.4580000   12.1320000   17.1040000  
H 12.7990000   10.0220000   18.0290000  
H 15.4640000    9.2340000   19.5420000  
H 16.9490000    8.9020000   20.3200000  
H 16.0050000   12.9020000   21.4660000  
H 12.1480000   15.2110000   19.0150000  
H 10.8600000   12.8800000   16.9550000  
C 14.2320000   14.7730000   20.4140000  
C 15.1480000   15.6870000   19.8320000  
C 15.5400000   16.8090000   20.5200000  
C 15.0740000   17.3090000   21.7520000  
C 14.2600000   16.3470000   22.4250000  
C 13.8520000   15.1210000   21.7770000  
C 15.8400000   15.7060000   18.6010000  
C 16.6730000   16.8170000   18.6060000  
N 16.4100000   17.5940000   19.7430000  
O 17.7120000   16.3220000   16.5090000  
C 17.6400000   17.1580000   17.5470000  
O 18.4150000   18.1190000   17.5790000  
O 13.7510000   16.6020000   23.6750000  
O 13.2080000   14.1990000   22.5520000  
H 15.7290000   14.9680000   17.7950000  
H 17.1180000   15.6230000   16.7830000  
H 16.6950000   18.4960000   20.0690000  
H 14.2200000   17.4240000   24.0990000  
H 13.0890000   14.6770000   23.4180000  
C 15.5350000   18.5460000   22.3830000  
C 15.0560000   19.7980000   21.9890000  
C 15.5200000   20.9250000   22.6420000  
C 16.5920000   20.9710000   23.5560000  
C 17.0700000   19.6970000   23.9590000  
C 16.4920000   18.4900000   23.4320000  
C 14.1720000   20.2410000   20.9980000  
C 14.1370000   21.6480000   20.9830000  
N 15.0310000   22.0740000   22.0230000  
O 12.4410000   21.8980000   19.3010000  
C 13.2910000   22.5220000   20.1570000  
O 13.3800000   23.7680000   20.1770000  
O 18.0170000   19.5900000   24.9050000  
O 16.9360000   17.3210000   23.9810000  
H 13.6450000   19.5670000   20.4060000  
H 12.7020000   20.9450000   19.2980000  
H 15.3110000   22.9850000   22.3290000  
H 18.0350000   20.4650000   25.3750000  
H 17.3910000   17.4580000   24.7480000  
C 17.2740000   22.2280000   24.0350000  
C 16.7210000   22.9670000   25.0720000  
C 17.2880000   24.0770000   25.5770000  
C 18.5430000   24.5930000   25.1090000  
C 19.2100000   23.8280000   24.1450000  
C 18.5660000   22.6350000   23.5350000  
C 15.5350000   22.6820000   25.8330000  
C 15.3310000   23.7640000   26.6640000  
N 16.4230000   24.5480000   26.5370000  
O 13.1410000   23.1380000   27.2510000  
C 14.1530000   24.0520000   27.4510000  
O 13.9330000   25.0550000   28.0560000  
O 20.4730000   24.1840000   23.6130000  
O 19.2420000   21.7770000   22.7180000  
H 14.7510000   21.9920000   25.6100000  
H 13.3830000   22.5190000   26.5380000  
H 16.5850000   25.3120000   27.1520000  
H 20.9890000   23.3630000   23.4700000  
H 18.6440000   20.9860000   22.6010000  
H 18.9810000   25.3960000   25.6500000  
