78
010 
C 19.8030000   12.8980000   25.5780000  
C 19.5690000   11.7150000   24.9710000  
C 18.6510000   11.6310000   23.8860000  
C 18.0580000   12.8220000   23.5190000  
C 18.2500000   14.1020000   24.0760000  
C 19.1680000   14.0870000   25.1300000  
C 18.2260000   10.5830000   22.9970000  
C 17.3800000   11.2250000   22.0980000  
N 17.2300000   12.5810000   22.4980000  
O 16.4000000    9.2020000   21.2810000  
C 16.5020000   10.5010000   21.1900000  
O 15.9040000   11.0920000   20.2930000  
O 19.5820000   15.3150000   25.6640000  
O 20.7250000   12.9530000   26.5890000  
H 20.1060000   10.8440000   25.2690000  
H 18.4000000    9.5260000   23.1240000  
H 17.0150000    9.0340000   22.0270000  
H 16.6360000   13.2120000   22.0030000  
H 19.3570000   16.0370000   25.0610000  
H 21.3110000   13.7390000   26.5440000  
C 17.7170000   15.2990000   23.4870000  
C 16.3490000   15.6530000   23.5170000  
C 15.8640000   16.6550000   22.6830000  
C 16.6770000   17.4680000   21.8930000  
C 18.0620000   17.1500000   21.8590000  
C 18.5710000   16.0730000   22.6440000  
C 15.2190000   15.1440000   24.2130000  
C 14.0960000   15.8770000   23.7710000  
N 14.5250000   16.8460000   22.9060000  
O 12.3450000   14.8270000   25.0460000  
C 12.6920000   15.7660000   24.1130000  
O 11.8640000   16.4990000   23.5930000  
O 18.9050000   17.8770000   21.0410000  
O 19.8970000   15.8150000   22.5770000  
H 15.3080000   14.3140000   24.9050000  
H 13.1910000   14.3480000   25.2210000  
H 13.9930000   17.5000000   22.3270000  
H 18.3060000   18.2810000   20.3660000  
H 20.2520000   16.5730000   22.0650000  
C 16.1280000   18.6010000   21.2260000  
C 15.3950000   19.6090000   21.8700000  
C 14.5820000   20.4960000   21.1920000  
C 14.4740000   20.5760000   19.7860000  
C 15.1830000   19.5190000   19.0950000  
C 15.9350000   18.5160000   19.8350000  
C 15.2770000   20.0070000   23.2720000  
C 14.3830000   21.0920000   23.3090000  
N 13.8380000   21.3660000   22.0640000  
O 14.8260000   21.6520000   25.5040000  
C 14.0170000   21.8970000   24.4690000  
O 13.1330000   22.7260000   24.5690000  
O 15.1380000   19.4260000   17.7460000  
O 16.6790000   17.5300000   19.1480000  
H 15.7880000   19.4770000   24.1060000  
H 15.5900000   21.1910000   25.2160000  
H 13.1000000   22.0320000   21.8720000  
H 14.9230000   20.2850000   17.3990000  
H 16.3610000   17.5170000   18.1790000  
C 13.4950000   21.5260000   19.2110000  
C 13.6950000   22.9050000   19.2890000  
C 12.6820000   23.7150000   18.9280000  
C 11.3660000   23.2430000   18.5260000  
C 11.1190000   21.8710000   18.4460000  
C 12.2160000   21.0210000   18.7540000  
C 14.7950000   23.7540000   19.5990000  
C 14.4110000   25.0380000   19.5620000  
N 13.0180000   25.0740000   19.1840000  
O 16.5120000   26.0360000   19.9580000  
C 15.2520000   26.2460000   19.6930000  
O 14.8840000   27.4080000   19.5920000  
O  9.8410000   21.4050000   18.1360000  
O 12.0520000   19.6660000   18.7450000  
H 15.7850000   23.4780000   19.8350000  
H 16.5420000   25.0700000   20.0170000  
H 12.3870000   25.9110000   19.0550000  
H  9.8880000   20.4580000   18.1890000  
H 12.8030000   19.3660000   19.2420000  
H 10.6730000   23.9750000   18.2640000  
