78
010 
C 12.3480000   13.3140000   17.3880000  
C 11.2770000   13.8050000   16.5880000  
C 10.8520000   15.0860000   16.9130000  
C 11.5200000   15.9450000   17.7070000  
C 12.6340000   15.5520000   18.4480000  
C 13.0020000   14.2060000   18.3160000  
C  9.8290000   15.8670000   16.2530000  
C  9.8840000   17.1320000   16.8030000  
N 10.9700000   17.1690000   17.7150000  
O  8.1710000   17.8670000   15.4150000  
C  8.8610000   18.1530000   16.5630000  
O  8.6780000   19.2000000   17.1430000  
O 14.0810000   13.7510000   19.0700000  
O 12.8540000   12.0400000   17.0440000  
H 10.9020000   13.1430000   15.8180000  
H  9.1070000   15.4710000   15.5890000  
H  8.5150000   17.0600000   15.0670000  
H 11.3230000   17.9680000   18.1560000  
H 14.4880000   14.4670000   19.5650000  
H 13.7180000   12.0730000   17.5540000  
C 13.4360000   16.4380000   19.3210000  
C 13.0090000   16.6790000   20.6280000  
C 13.8240000   17.3260000   21.5030000  
C 15.1600000   17.8070000   21.3110000  
C 15.6090000   17.5700000   19.9820000  
C 14.7980000   16.8800000   19.0140000  
C 11.8250000   16.2940000   21.3800000  
C 11.9760000   16.7450000   22.7220000  
N 13.2610000   17.2720000   22.7920000  
O  9.6430000   16.6620000   23.4280000  
C 10.9370000   16.9310000   23.7510000  
O 11.2060000   17.3260000   24.8350000  
O 16.9130000   17.8740000   19.6230000  
O 15.2300000   16.5960000   17.8190000  
H 10.8870000   16.0320000   20.8850000  
H  9.6300000   16.4020000   22.4880000  
H 13.6010000   17.6750000   23.6580000  
H 17.2320000   18.5590000   20.1830000  
H 16.1280000   17.0020000   17.6180000  
C 16.1030000   18.4040000   22.3170000  
C 17.4110000   17.8180000   22.5420000  
C 18.1860000   18.3640000   23.5830000  
C 17.7380000   19.3580000   24.5260000  
C 16.4430000   19.7750000   24.3590000  
C 15.6870000   19.4080000   23.2200000  
C 18.1320000   16.6870000   22.0710000  
C 19.3580000   16.6350000   22.7670000  
N 19.3710000   17.6100000   23.7360000  
O 20.4210000   14.8880000   21.5470000  
C 20.5630000   15.8150000   22.5020000  
O 21.6280000   15.9750000   23.0540000  
O 15.9450000   20.6950000   25.2450000  
O 14.5790000   20.0130000   22.8730000  
H 17.8890000   16.0650000   21.2170000  
H 19.5160000   14.9190000   21.2960000  
H 20.1460000   17.8110000   24.4000000  
H 16.7690000   20.9640000   25.7560000  
H 14.3800000   20.6760000   23.5530000  
C 18.6340000   19.9150000   25.5330000  
C 19.4010000   21.0730000   25.2860000  
C 20.4070000   21.4560000   26.0960000  
C 20.6350000   20.8700000   27.3280000  
C 19.7780000   19.7980000   27.7390000  
C 18.8520000   19.3050000   26.8150000  
C 19.2580000   22.0740000   24.3160000  
C 20.3410000   22.9140000   24.4880000  
N 21.0140000   22.5890000   25.6390000  
O 19.9220000   24.3920000   22.5660000  
C 20.6610000   24.1130000   23.6370000  
O 21.6300000   24.8100000   23.9350000  
O 19.8640000   19.2520000   28.9870000  
O 18.1850000   18.1900000   27.1650000  
H 18.5480000   22.1520000   23.5070000  
H 19.2700000   23.6180000   22.6890000  
H 21.7750000   23.1400000   26.0260000  
H 19.0820000   18.6630000   29.1320000  
H 17.8550000   17.7590000   26.3130000  
H 21.4030000   21.3260000   28.0530000  
