78
010 
C 14.3910000   11.0810000   21.8900000  
C 15.4910000   10.2120000   22.1730000  
C 16.7110000   10.7790000   22.6630000  
C 16.7900000   12.0860000   22.8000000  
C 15.7140000   12.9710000   22.4460000  
C 14.5410000   12.4570000   21.9710000  
C 17.9890000   10.1980000   23.1710000  
C 18.7710000   11.3080000   23.5100000  
N 18.0460000   12.4980000   23.2640000  
O 20.6340000   10.0730000   24.0550000  
C 20.1610000   11.2790000   24.0220000  
O 20.8970000   12.2790000   24.2420000  
O 13.5990000   13.3250000   21.4310000  
O 13.4030000   10.5980000   21.2240000  
H 15.4950000    9.1190000   21.9860000  
H 18.2630000    9.1460000   23.2340000  
H 20.0020000    9.4480000   23.6990000  
H 18.3410000   13.4760000   23.3280000  
H 13.4210000   14.0200000   22.0800000  
H 12.9090000   11.2770000   20.7070000  
C 15.8660000   14.4530000   22.4470000  
C 16.4800000   15.0060000   21.3310000  
C 16.5530000   16.3780000   21.2320000  
C 15.8840000   17.3660000   22.0510000  
C 15.1380000   16.7210000   23.0870000  
C 15.2170000   15.3130000   23.3780000  
C 16.9520000   14.4320000   20.1340000  
C 17.3710000   15.4510000   19.3110000  
N 17.1480000   16.6530000   19.9940000  
O 17.8620000   14.2030000   17.2990000  
C 17.8520000   15.4500000   17.8860000  
O 18.0410000   16.4700000   17.2570000  
O 14.3220000   17.5230000   23.8830000  
O 14.5440000   14.8460000   24.4600000  
H 16.8910000   13.3380000   19.8640000  
H 17.6220000   13.6410000   18.0660000  
H 17.4830000   17.5850000   19.7920000  
H 14.4190000   18.5010000   23.5910000  
H 14.1480000   15.6290000   24.8800000  
C 15.8020000   18.8300000   21.8410000  
C 14.5950000   19.4960000   21.4420000  
C 14.5620000   20.8720000   21.3270000  
C 15.7210000   21.7030000   21.4340000  
C 16.9230000   21.0230000   21.6860000  
C 16.9800000   19.6180000   21.9600000  
C 13.3360000   19.0520000   21.1090000  
C 12.5310000   20.1960000   20.9510000  
N 13.3220000   21.3350000   21.0850000  
O 10.5310000   19.1100000   20.5010000  
C 11.1310000   20.3320000   20.5690000  
O 10.4230000   21.3380000   20.3600000  
O 18.0220000   21.7350000   22.0570000  
O 18.1410000   19.0750000   22.3870000  
H 13.0300000   18.0380000   20.9440000  
H 11.2710000   18.5740000   20.8240000  
H 13.1160000   22.3020000   20.8700000  
H 17.9010000   22.6490000   21.8210000  
H 18.7310000   19.7860000   22.6600000  
C 15.5870000   23.1160000   21.3300000  
C 14.7590000   23.8330000   22.2540000  
C 14.6540000   25.2130000   22.1510000  
C 15.3760000   25.9830000   21.2280000  
C 16.2820000   25.3530000   20.4190000  
C 16.3610000   23.9040000   20.4210000  
C 13.9460000   23.4940000   23.4340000  
C 13.3740000   24.6470000   23.9000000  
N 13.9630000   25.7670000   23.1530000  
O 11.7280000   23.4070000   25.2020000  
C 12.2360000   24.6420000   24.8410000  
O 11.7350000   25.6870000   25.2980000  
O 16.9480000   26.0580000   19.4940000  
O 17.2020000   23.3080000   19.5300000  
H 13.7550000   22.4810000   23.7460000  
H 12.3010000   22.7880000   24.6540000  
H 13.7620000   26.7900000   23.2680000  
H 17.3920000   25.4490000   18.8600000  
H 17.1740000   22.3860000   19.8210000  
H 15.3350000   27.0700000   21.2970000  
