78
010 
C 13.4360000   19.8740000   28.7500000  
C 12.0380000   19.6260000   28.9350000  
C 11.2890000   19.0790000   27.8770000  
C 11.9360000   18.7090000   26.7210000  
C 13.3160000   18.9190000   26.4910000  
C 14.0470000   19.5390000   27.5260000  
C  9.9020000   18.8130000   27.6430000  
C  9.7740000   18.4880000   26.2770000  
N 11.0660000   18.3210000   25.7460000  
O  7.4520000   18.4760000   26.0610000  
C  8.5860000   18.2270000   25.4350000  
O  8.7050000   17.8020000   24.2640000  
O 15.4140000   19.7090000   27.4230000  
O 14.0500000   20.5030000   29.8050000  
H 11.5650000   20.0680000   29.7720000  
H  9.1410000   19.0540000   28.3490000  
H  7.8520000   18.7160000   26.9480000  
H 11.3730000   17.9380000   24.8590000  
H 15.6300000   19.3660000   26.5250000  
H 15.0310000   20.5580000   29.7010000  
C 13.8340000   18.6260000   25.1440000  
C 13.7890000   19.5120000   24.0410000  
C 14.3870000   19.1440000   22.8750000  
C 15.1360000   18.0120000   22.6050000  
C 15.3160000   17.1520000   23.6990000  
C 14.6320000   17.4080000   24.9460000  
C 13.2830000   20.8520000   23.8290000  
C 13.6290000   21.2110000   22.5680000  
N 14.2250000   20.1390000   21.9200000  
O 12.1130000   23.0910000   22.4670000  
C 13.1280000   22.3910000   21.8430000  
O 13.4410000   22.6510000   20.6740000  
O 16.0060000   15.9680000   23.6400000  
O 14.8410000   16.5070000   25.9550000  
H 12.6860000   21.3900000   24.4870000  
H 11.7090000   22.4950000   23.1570000  
H 14.3590000   20.0010000   20.9190000  
H 16.2900000   15.7450000   22.7480000  
H 15.4930000   15.9100000   25.6990000  
C 15.9040000   17.8170000   21.2950000  
C 17.2760000   17.5340000   21.2260000  
C 17.9260000   17.5430000   20.0470000  
C 17.3400000   17.7500000   18.8470000  
C 15.9090000   17.8130000   18.8480000  
C 15.1910000   17.7940000   20.0870000  
C 18.3280000   17.4240000   22.2390000  
C 19.4920000   17.2120000   21.5510000  
N 19.2950000   17.3380000   20.1920000  
O 20.7390000   17.1320000   23.5700000  
C 20.8000000   16.9990000   22.2000000  
O 21.8480000   16.7190000   21.6970000  
O 15.3630000   17.9620000   17.6510000  
O 13.8800000   17.9530000   20.1410000  
H 18.2250000   17.6460000   23.2790000  
H 19.9340000   17.5640000   23.5940000  
H 20.0380000   17.5750000   19.5280000  
H 16.0730000   17.7470000   16.9990000  
H 13.6170000   18.0800000   19.2270000  
C 18.1400000   17.6250000   17.5900000  
C 18.4650000   16.3830000   17.0330000  
C 19.1670000   16.3490000   15.7830000  
C 19.5020000   17.4580000   14.9880000  
C 19.3490000   18.7040000   15.7190000  
C 18.7160000   18.7320000   16.9660000  
C 18.1540000   15.0520000   17.4220000  
C 18.7660000   14.2100000   16.4350000  
N 19.3560000   15.0800000   15.4660000  
O 17.9250000   12.2260000   17.4190000  
C 18.6400000   12.7140000   16.3610000  
O 19.1170000   12.0090000   15.4610000  
O 19.7170000   19.8810000   15.1800000  
O 18.7940000   19.8840000   17.5670000  
H 17.6280000   14.7650000   18.3410000  
H 17.7660000   12.9490000   18.0200000  
H 19.9830000   14.7910000   14.7560000  
H 19.6140000   20.6280000   15.7810000  
H 18.2960000   19.8170000   18.3850000  
H 20.0830000   17.4350000   14.0640000  
