78
010 
C 16.3210000   10.5550000   22.7080000  
C 17.0580000   10.3340000   23.8850000  
C 17.4240000   11.4530000   24.6540000  
C 16.8910000   12.6490000   24.3310000  
C 16.1610000   12.9160000   23.1770000  
C 15.8400000   11.8300000   22.3230000  
C 18.0920000   11.5870000   25.9500000  
C 17.9120000   12.9040000   26.2780000  
N 17.1830000   13.5290000   25.2760000  
O 19.0380000   12.5920000   28.3220000  
C 18.3550000   13.5060000   27.5700000  
O 18.1270000   14.6270000   27.9690000  
O 15.0840000   11.9780000   21.2090000  
O 15.9620000    9.4620000   21.9490000  
H 17.2930000    9.3430000   24.0760000  
H 18.6210000   10.7930000   26.5810000  
H 18.8990000   11.7840000   27.9010000  
H 16.6840000   14.4000000   25.4370000  
H 14.6680000   12.8840000   21.2450000  
H 15.7660000    9.7770000   21.0460000  
C 15.9310000   14.3940000   22.8280000  
C 16.8660000   15.2080000   22.2240000  
C 16.5910000   16.4920000   21.8790000  
C 15.4110000   17.2230000   22.2240000  
C 14.4890000   16.4430000   23.0170000  
C 14.7040000   15.0150000   23.1420000  
C 18.1040000   14.8800000   21.5280000  
C 18.5680000   16.1120000   21.0200000  
N 17.6340000   17.1180000   21.2410000  
O 20.6970000   15.2920000   20.4110000  
C 19.7740000   16.2600000   20.2180000  
O 19.9850000   17.2230000   19.5300000  
O 13.3360000   16.9890000   23.5490000  
O 13.7300000   14.2610000   23.8010000  
H 18.4490000   13.8900000   21.4540000  
H 20.3810000   14.7600000   21.1470000  
H 17.6640000   18.0950000   20.8630000  
H 13.4570000   17.9340000   23.4550000  
H 12.9210000   14.7100000   23.9130000  
C 15.1520000   18.6350000   21.8510000  
C 15.2220000   19.0630000   20.4710000  
C 15.1010000   20.3910000   20.2510000  
C 14.8810000   21.3930000   21.1610000  
C 14.6860000   20.9240000   22.5020000  
C 14.9800000   19.6080000   22.8360000  
C 15.4580000   18.5040000   19.1430000  
C 15.2280000   19.5350000   18.1890000  
N 14.9870000   20.7010000   18.9070000  
O 15.6470000   18.1060000   16.3280000  
C 15.1610000   19.3350000   16.7080000  
O 14.6860000   20.2400000   15.9500000  
O 14.4320000   21.8800000   23.4410000  
O 15.0450000   19.2720000   24.1600000  
H 15.5810000   17.4850000   18.9960000  
H 16.0620000   17.6550000   17.1010000  
H 14.9210000   21.6070000   18.4380000  
H 14.3920000   22.7690000   22.9800000  
H 14.8440000   20.1330000   24.6020000  
C 14.7770000   22.8240000   20.7470000  
C 13.5720000   23.5910000   21.0050000  
C 13.5150000   24.9070000   20.6120000  
C 14.5170000   25.5720000   19.8900000  
C 15.6930000   24.8600000   19.6430000  
C 15.8140000   23.5310000   20.0950000  
C 12.3230000   23.1690000   21.5270000  
C 11.4960000   24.2880000   21.3310000  
N 12.2550000   25.3730000   20.8510000  
O  9.4450000   23.2250000   22.0840000  
C 10.0020000   24.3440000   21.6210000  
O  9.3620000   25.3590000   21.5400000  
O 16.7260000   25.3360000   18.9030000  
O 17.0260000   22.8670000   19.8920000  
H 12.0400000   22.1090000   21.7990000  
H 10.0850000   22.5290000   21.9260000  
H 11.9680000   26.2900000   20.7200000  
H 17.5220000   24.8330000   19.1750000  
H 16.9370000   21.9710000   20.2390000  
H 14.3540000   26.5330000   19.3740000  
