78
010 
C 16.8340000   13.2800000   27.7840000  
C 17.9340000   12.4620000   27.3490000  
C 18.5300000   12.7520000   26.0840000  
C 18.1500000   13.8720000   25.3740000  
C 17.0220000   14.7030000   25.7200000  
C 16.3340000   14.3700000   26.9780000  
C 19.6490000   12.1660000   25.3040000  
C 19.8420000   12.9650000   24.1650000  
N 18.9320000   14.0670000   24.2310000  
O 21.5110000   11.6050000   23.0520000  
C 20.6820000   12.7020000   22.9740000  
O 20.8280000   13.4640000   22.0480000  
O 15.3620000   15.2110000   27.3570000  
O 16.2380000   12.9460000   28.9610000  
H 18.2640000   11.6390000   27.9710000  
H 20.1760000   11.2010000   25.4730000  
H 21.1990000   11.2670000   23.8460000  
H 18.7480000   14.7650000   23.5370000  
H 15.4880000   16.0410000   26.9270000  
H 15.6220000   13.6410000   29.1490000  
C 16.5840000   15.8520000   24.8360000  
C 16.0360000   15.5720000   23.6020000  
C 15.7090000   16.5420000   22.7040000  
C 15.8380000   17.8940000   22.8890000  
C 16.2210000   18.2940000   24.2300000  
C 16.5830000   17.2300000   25.1630000  
C 15.9410000   14.3140000   22.9080000  
C 15.5950000   14.6370000   21.5770000  
N 15.4340000   16.0340000   21.4900000  
O 15.9230000   12.3940000   20.6520000  
C 15.4670000   13.6820000   20.4380000  
O 14.9930000   13.9770000   19.3440000  
O 16.3990000   19.5950000   24.6320000  
O 17.0540000   17.5610000   26.4140000  
H 16.1120000   13.3810000   23.3400000  
H 16.2350000   12.3420000   21.6290000  
H 15.2460000   16.5420000   20.6060000  
H 16.1190000   20.1590000   23.8770000  
H 17.1240000   18.5270000   26.4320000  
C 15.5520000   18.8750000   21.7640000  
C 14.2700000   19.1780000   21.4360000  
C 14.0420000   20.1070000   20.4140000  
C 15.0240000   20.6140000   19.5790000  
C 16.3640000   20.2170000   19.8400000  
C 16.6390000   19.3170000   20.9600000  
C 12.9810000   18.7610000   21.9600000  
C 12.0120000   19.4020000   21.1510000  
N 12.6830000   20.2240000   20.1950000  
O 10.0900000   18.6100000   22.2430000  
C 10.5670000   19.3940000   21.3020000  
O  9.8370000   20.0660000   20.6430000  
O 17.4080000   20.5290000   18.9920000  
O 17.9380000   18.9740000   21.2520000  
H 12.8410000   18.2000000   22.8970000  
H 10.7940000   18.2450000   22.7350000  
H 12.2450000   20.8350000   19.5450000  
H 17.0300000   20.5070000   18.0720000  
H 18.5490000   19.1980000   20.5350000  
C 14.7150000   21.4320000   18.4040000  
C 14.2420000   22.8060000   18.5500000  
C 13.9310000   23.5700000   17.4770000  
C 13.9550000   23.0920000   16.2150000  
C 14.4090000   21.7570000   15.9490000  
C 14.8460000   20.9800000   17.1100000  
C 14.0660000   23.5160000   19.7760000  
C 13.4160000   24.6900000   19.4040000  
N 13.3780000   24.7300000   17.9750000  
O 13.2220000   25.5210000   21.5170000  
C 12.8990000   25.7860000   20.2560000  
O 12.3140000   26.7950000   19.9240000  
O 14.5710000   21.2440000   14.6970000  
O 15.2780000   19.7200000   16.9570000  
H 14.3150000   23.0490000   20.7550000  
H 13.6120000   24.6740000   21.5080000  
H 12.9350000   25.4550000   17.5170000  
H 14.6690000   20.2830000   14.8390000  
H 15.2780000   19.2610000   17.8270000  
H 13.7480000   23.7670000   15.3800000  
