78
010 
C 19.8280000   11.9780000   22.3020000  
C 19.2730000   11.0400000   23.1620000  
C 18.0970000   11.3990000   23.9010000  
C 17.5320000   12.6470000   23.6240000  
C 18.0830000   13.6230000   22.8600000  
C 19.3020000   13.2700000   22.1780000  
C 17.2480000   10.7970000   24.8330000  
C 16.1300000   11.6200000   24.9980000  
N 16.2820000   12.7760000   24.2570000  
O 15.1060000   10.3230000   26.7230000  
C 15.0290000   11.4090000   25.9590000  
O 14.0440000   12.1380000   26.0380000  
O 19.9160000   14.1090000   21.2920000  
O 20.8130000   11.5410000   21.5370000  
H 19.7050000   10.1070000   23.2500000  
H 17.4110000    9.7980000   25.2050000  
H 16.0050000    9.9330000   26.6340000  
H 15.5310000   13.4370000   24.0940000  
H 19.3600000   14.8750000   21.1710000  
H 21.0520000   12.2970000   20.9550000  
C 17.4290000   14.9370000   22.5300000  
C 16.9900000   15.7790000   23.5560000  
C 16.2730000   16.9280000   23.2740000  
C 15.9140000   17.3500000   22.0020000  
C 16.2970000   16.4890000   20.9230000  
C 17.0460000   15.3130000   21.2160000  
C 17.1350000   15.7420000   24.9940000  
C 16.6560000   16.9530000   25.4720000  
N 16.0680000   17.6580000   24.3830000  
O 16.9950000   16.6520000   27.8460000  
C 16.6700000   17.4580000   26.8560000  
O 16.2680000   18.5650000   27.1280000  
O 16.0370000   16.8910000   19.6350000  
O 17.3140000   14.5250000   20.1260000  
H 17.7360000   15.0560000   25.5490000  
H 17.2490000   15.7310000   27.4980000  
H 15.6030000   18.5810000   24.4430000  
H 15.5820000   17.7180000   19.7790000  
H 16.8620000   15.0810000   19.4120000  
C 15.1020000   18.5580000   21.7370000  
C 15.7000000   19.7330000   21.2640000  
C 15.0210000   20.8700000   20.8980000  
C 13.5920000   20.9580000   21.0570000  
C 12.9850000   19.7490000   21.4780000  
C 13.6730000   18.5920000   21.8820000  
C 17.1090000   20.0620000   21.1140000  
C 17.1220000   21.4000000   20.6720000  
N 15.8370000   21.8530000   20.4150000  
O 19.5020000   21.3810000   20.9730000  
C 18.4520000   22.1080000   20.5150000  
O 18.6100000   23.1720000   20.0130000  
O 11.6040000   19.6760000   21.5250000  
O 12.9470000   17.5650000   22.5010000  
H 17.8690000   19.3990000   21.4510000  
H 19.1250000   20.5190000   21.2810000  
H 15.6220000   22.6950000   19.8580000  
H 11.2590000   20.4360000   21.0560000  
H 12.0910000   17.8910000   22.8320000  
C 12.7670000   22.1750000   20.6090000  
C 12.8280000   22.5660000   19.2410000  
C 12.1100000   23.6880000   18.7740000  
C 11.3170000   24.4850000   19.5810000  
C 11.1910000   24.1150000   20.9470000  
C 11.8910000   22.9390000   21.4270000  
C 13.6190000   22.0490000   18.1590000  
C 13.3400000   22.8200000   17.1040000  
N 12.5600000   23.9480000   17.4990000  
O 14.4100000   21.5400000   15.4480000  
C 13.8280000   22.7070000   15.7030000  
O 13.6720000   23.6680000   14.9180000  
O 10.3030000   24.7520000   21.7750000  
O 11.6380000   22.6000000   22.7290000  
H 14.2130000   21.1020000   18.3290000  
H 14.3140000   21.0500000   16.2530000  
H 12.2260000   24.7630000   16.9570000  
H 10.5760000   24.4510000   22.6410000  
H 11.9080000   21.7500000   22.9030000  
H 10.8260000   25.3660000   19.2050000  
