78
010 
C 13.6750000   10.7950000   20.4110000  
C 14.1060000   10.5750000   19.0450000  
C 14.7220000   11.6020000   18.3230000  
C 15.0730000   12.7390000   19.0150000  
C 14.7340000   13.0210000   20.3410000  
C 14.0310000   12.0180000   20.9820000  
C 15.0360000   11.7490000   16.9110000  
C 15.4900000   13.0660000   16.8130000  
N 15.6730000   13.5960000   18.0840000  
O 15.6940000   12.9230000   14.4850000  
C 15.8400000   13.7770000   15.5470000  
O 16.2880000   14.8980000   15.3920000  
O 13.6710000   12.2150000   22.2540000  
O 13.1840000    9.7670000   21.1290000  
H 13.9000000    9.6300000   18.5630000  
H 14.8530000   11.0670000   16.1350000  
H 15.3270000   12.0820000   14.8510000  
H 16.2280000   14.4070000   18.2420000  
H 14.0470000   13.1180000   22.4390000  
H 13.0740000   10.2380000   21.9840000  
C 14.9920000   14.3790000   20.9250000  
C 14.3820000   15.5410000   20.3830000  
C 14.8220000   16.7470000   20.8160000  
C 15.6170000   16.9940000   21.9590000  
C 16.1020000   15.8410000   22.5820000  
C 15.7910000   14.5440000   22.1080000  
C 13.4820000   15.7450000   19.2400000  
C 13.4180000   17.1280000   19.0320000  
N 14.1380000   17.7580000   20.0740000  
O 12.1750000   17.0310000   17.1170000  
C 12.7160000   17.8620000   17.9860000  
O 12.7320000   19.0390000   17.9660000  
O 16.8540000   16.0050000   23.7410000  
O 16.3640000   13.4310000   22.7380000  
H 12.8990000   15.0360000   18.7490000  
H 12.5460000   16.1840000   17.3980000  
H 14.1700000   18.7800000   20.1340000  
H 16.9810000   16.9690000   23.8330000  
H 16.8490000   13.6740000   23.5360000  
C 15.8350000   18.3880000   22.4070000  
C 15.4390000   18.8430000   23.7000000  
C 15.5270000   20.1440000   24.0890000  
C 16.1520000   21.1880000   23.3060000  
C 16.7460000   20.6950000   22.0680000  
C 16.5390000   19.3780000   21.6010000  
C 14.6340000   18.2420000   24.7200000  
C 14.4080000   19.1580000   25.7530000  
N 15.0150000   20.3610000   25.3330000  
O 13.2040000   17.7460000   27.1940000  
C 13.6470000   19.0240000   27.0280000  
O 13.4580000   19.9220000   27.8190000  
O 17.4710000   21.5960000   21.3280000  
O 17.0780000   18.9990000   20.4050000  
H 14.1740000   17.2650000   24.7780000  
H 13.6990000   17.1660000   26.5970000  
H 14.8840000   21.2660000   25.8290000  
H 17.3740000   22.4840000   21.7350000  
H 17.7740000   19.6090000   20.0740000  
C 16.2240000   22.6170000   23.7280000  
C 17.4040000   23.2320000   24.1420000  
C 17.3800000   24.5210000   24.5510000  
C 16.2580000   25.3000000   24.6130000  
C 15.0500000   24.7460000   24.1730000  
C 15.0030000   23.4070000   23.7110000  
C 18.7620000   22.7690000   24.2540000  
C 19.5850000   23.8690000   24.6290000  
N 18.6460000   24.9620000   24.8630000  
O 21.5320000   22.6260000   24.7620000  
C 20.9840000   23.8210000   24.9990000  
O 21.6220000   24.8070000   25.3570000  
O 13.9800000   25.4770000   24.2090000  
O 13.8020000   22.8700000   23.3920000  
H 19.0230000   21.7380000   24.1310000  
H 20.8000000   22.0380000   24.6240000  
H 18.9100000   25.8380000   25.2540000  
H 13.2580000   25.0270000   23.7550000  
H 13.7530000   21.8840000   23.5260000  
H 16.2730000   26.3610000   24.9370000  
