78
010 
C 15.3550000   19.5060000   29.1870000  
C 16.1990000   18.5490000   29.7060000  
C 16.7280000   17.6490000   28.8390000  
C 16.5010000   17.7620000   27.4780000  
C 15.5920000   18.6940000   26.9120000  
C 14.9500000   19.5630000   27.8050000  
C 17.6110000   16.6210000   29.0830000  
C 17.7990000   16.0650000   27.8200000  
N 17.2060000   16.8380000   26.8170000  
O 19.1760000   14.1500000   28.4100000  
C 18.7110000   14.9390000   27.4650000  
O 19.0580000   14.7300000   26.3260000  
O 14.0460000   20.4990000   27.3870000  
O 14.9030000   20.5030000   30.0660000  
H 16.3450000   18.3710000   30.7510000  
H 18.1500000   16.3460000   29.9950000  
H 18.7600000   14.4030000   29.2230000  
H 17.2480000   16.6480000   25.8380000  
H 14.1650000   20.5040000   26.4350000  
H 14.2390000   21.0130000   29.4970000  
C 15.2470000   18.6090000   25.4670000  
C 14.5740000   17.4660000   24.9760000  
C 14.4460000   17.3290000   23.6170000  
C 14.9120000   18.2690000   22.6730000  
C 15.3670000   19.5250000   23.2090000  
C 15.5610000   19.6430000   24.5940000  
C 14.0280000   16.2560000   25.5320000  
C 13.6350000   15.3850000   24.5210000  
N 13.9410000   16.0580000   23.3010000  
O 13.4110000   13.4620000   25.8270000  
C 13.1460000   14.0110000   24.6240000  
O 12.6580000   13.3600000   23.7140000  
O 15.5650000   20.6300000   22.4550000  
O 16.3460000   20.6810000   24.9930000  
H 14.0220000   15.9950000   26.5800000  
H 13.9320000   14.1910000   26.2690000  
H 14.0820000   15.6820000   22.3380000  
H 15.4300000   20.3120000   21.5910000  
H 16.4590000   21.3270000   24.2580000  
C 14.8550000   18.0670000   21.1960000  
C 14.2290000   18.9490000   20.3210000  
C 14.3300000   18.8610000   18.9720000  
C 15.2140000   17.9950000   18.2780000  
C 15.9370000   17.1150000   19.1540000  
C 15.7550000   17.0990000   20.5810000  
C 13.1990000   19.9240000   20.5580000  
C 12.9170000   20.5310000   19.3950000  
N 13.5440000   19.8380000   18.3380000  
O 10.9570000   21.7300000   20.1100000  
C 11.9210000   21.5600000   19.1810000  
O 11.9000000   22.1850000   18.1640000  
O 16.7650000   16.2050000   18.6060000  
O 16.3120000   16.1080000   21.3870000  
H 12.8940000   20.2310000   21.5440000  
H 10.9460000   21.0180000   20.7240000  
H 13.3400000   19.9060000   17.3330000  
H 16.7860000   16.2640000   17.6290000  
H 17.1370000   15.9980000   20.9870000  
C 15.4070000   18.0660000   16.8140000  
C 16.7010000   18.4030000   16.2360000  
C 16.8930000   18.1890000   14.9280000  
C 16.0020000   17.6280000   14.0290000  
C 14.7190000   17.3740000   14.5450000  
C 14.4160000   17.5740000   15.9250000  
C 17.9890000   18.8010000   16.7790000  
C 18.8300000   19.0090000   15.7190000  
N 18.1670000   18.5160000   14.5720000  
O 20.5320000   20.0560000   17.0120000  
C 20.1310000   19.7040000   15.7920000  
O 20.7740000   19.8920000   14.7400000  
O 13.7930000   16.9260000   13.6900000  
O 13.1840000   17.2190000   16.3510000  
H 18.0830000   18.9450000   17.8560000  
H 19.7180000   19.8540000   17.4430000  
H 18.4750000   18.6120000   13.6490000  
H 13.1250000   16.4970000   14.2280000  
H 13.0740000   17.7020000   17.1920000  
H 16.2580000   17.5110000   12.9350000  
