78
010 
C  8.8710000   18.2710000   25.1560000  
C  8.0320000   19.2410000   24.5300000  
C  8.4920000   19.8590000   23.3450000  
C  9.7020000   19.3830000   22.8020000  
C 10.5570000   18.4610000   23.4010000  
C 10.0870000   17.8570000   24.5940000  
C  8.1220000   21.0130000   22.5230000  
C  9.1290000   21.1620000   21.6260000  
N 10.0590000   20.1060000   21.7250000  
O  8.1660000   22.9760000   20.4760000  
C  9.2250000   22.1830000   20.6650000  
O 10.2700000   22.3430000   20.0770000  
O 10.8540000   16.8550000   25.1620000  
O  8.4200000   17.7870000   26.4270000  
H  7.0540000   19.5550000   24.9030000  
H  7.2800000   21.7160000   22.6230000  
H  7.4770000   22.6960000   21.0420000  
H 10.9220000   20.0890000   21.2490000  
H 11.6850000   16.8620000   24.6200000  
H  9.1710000   17.3180000   26.8640000  
C 11.8940000   18.2150000   22.8510000  
C 12.8940000   19.2050000   22.8780000  
C 14.1320000   18.8810000   22.4620000  
C 14.5690000   17.6190000   22.0210000  
C 13.5440000   16.5720000   22.0320000  
C 12.2720000   16.9450000   22.4230000  
C 12.8390000   20.5080000   23.5090000  
C 14.1880000   20.8920000   23.3580000  
N 14.9640000   19.9680000   22.6140000  
O 13.9950000   22.8780000   24.7070000  
C 14.8210000   22.1040000   23.9220000  
O 16.0080000   22.3800000   23.7230000  
O 13.9080000   15.3450000   21.7430000  
O 11.3350000   15.9230000   22.3650000  
H 11.9600000   20.9870000   23.8450000  
H 13.1590000   22.3730000   24.7340000  
H 15.8780000   20.1310000   22.2500000  
H 14.8130000   15.3810000   21.3290000  
H 11.6130000   15.2780000   21.7020000  
C 16.0260000   17.4860000   21.5690000  
C 16.8340000   16.4970000   22.1790000  
C 18.1760000   16.4880000   21.9210000  
C 18.8680000   17.3620000   21.0440000  
C 18.0150000   18.2650000   20.3700000  
C 16.6560000   18.4230000   20.6880000  
C 16.6180000   15.4040000   23.1270000  
C 17.8630000   14.7600000   23.3220000  
N 18.8370000   15.4390000   22.5740000  
O 16.9870000   13.2710000   24.8490000  
C 18.1110000   13.6380000   24.1980000  
O 19.1730000   13.1310000   24.2750000  
O 18.5240000   19.0140000   19.3170000  
O 16.0450000   19.3480000   19.9530000  
H 15.7330000   15.1170000   23.6040000  
H 16.3900000   14.0280000   24.6620000  
H 19.8460000   15.3000000   22.6150000  
H 19.5270000   18.8630000   19.2680000  
H 16.7790000   19.7000000   19.3690000  
C 20.3300000   17.3730000   20.7860000  
C 20.9300000   17.0130000   19.5600000  
C 22.2670000   16.9450000   19.4560000  
C 23.1630000   17.2650000   20.4870000  
C 22.5640000   17.6420000   21.7210000  
C 21.1910000   17.6390000   21.8790000  
C 20.3760000   16.6840000   18.3230000  
C 21.5220000   16.4320000   17.4550000  
N 22.6750000   16.5040000   18.2560000  
O 20.1870000   15.8680000   15.5940000  
C 21.4330000   15.9490000   16.1000000  
O 22.4460000   15.5990000   15.4880000  
O 23.4130000   17.7910000   22.7550000  
O 20.7890000   17.9140000   23.1760000  
H 19.3260000   16.5170000   18.1210000  
H 19.6270000   16.1840000   16.2460000  
H 23.6550000   16.3400000   17.9490000  
H 22.9040000   18.0390000   23.5670000  
H 19.8900000   18.1620000   23.2340000  
H 24.2200000   17.2630000   20.4480000  
