78
010 
C 18.4020000   11.2760000   22.5990000  
C 18.5590000   10.4660000   21.4540000  
C 18.0590000   11.0580000   20.2640000  
C 17.4040000   12.2300000   20.2120000  
C 17.2160000   13.0960000   21.3590000  
C 17.9080000   12.6020000   22.5380000  
C 17.9790000   10.4880000   18.9200000  
C 17.1850000   11.3840000   18.1690000  
N 16.8740000   12.5490000   18.9300000  
O 17.1780000   10.1680000   16.0700000  
C 16.7530000   11.2080000   16.8040000  
O 15.9910000   11.9690000   16.3100000  
O 17.8770000   13.4150000   23.5790000  
O 18.9360000   10.8520000   23.7400000  
H 18.9750000    9.4680000   21.5260000  
H 18.4470000    9.5410000   18.5980000  
H 17.7930000    9.7510000   16.7190000  
H 16.2310000   13.3150000   18.7930000  
H 17.3990000   14.2020000   23.3990000  
H 19.0200000   11.5830000   24.3160000  
C 16.5690000   14.4710000   21.3190000  
C 15.5040000   14.8270000   22.2010000  
C 15.1430000   16.1420000   22.3220000  
C 15.5460000   17.1910000   21.5070000  
C 16.4870000   16.7820000   20.5120000  
C 17.0770000   15.4870000   20.4790000  
C 14.8630000   14.1540000   23.3450000  
C 14.0380000   15.1090000   23.9520000  
N 14.2490000   16.3240000   23.2760000  
O 13.2770000   13.5510000   25.5720000  
C 13.2100000   14.8370000   25.1340000  
O 12.5000000   15.6760000   25.6240000  
O 17.0310000   17.6600000   19.6540000  
O 18.1520000   15.2540000   19.6080000  
H 15.0630000   13.1580000   23.6420000  
H 13.8960000   13.1290000   24.9910000  
H 13.6880000   17.1610000   23.4620000  
H 16.5450000   18.4630000   19.9170000  
H 18.2070000   15.9570000   18.9340000  
C 14.9700000   18.6080000   21.5410000  
C 15.2010000   19.4550000   22.7020000  
C 14.7970000   20.7330000   22.7430000  
C 14.1840000   21.4140000   21.6420000  
C 13.9240000   20.6380000   20.4740000  
C 14.4060000   19.2750000   20.4200000  
C 15.7750000   19.1680000   24.0070000  
C 15.6340000   20.3450000   24.7300000  
N 15.1210000   21.3720000   23.9370000  
O 16.6420000   19.5090000   26.7510000  
C 15.9770000   20.5400000   26.1700000  
O 15.7820000   21.4820000   26.9310000  
O 13.2840000   21.1700000   19.4080000  
O 14.3420000   18.5450000   19.2010000  
H 15.9830000   18.1050000   24.3910000  
H 16.8170000   18.8130000   26.1640000  
H 14.8010000   22.2210000   24.2700000  
H 13.1200000   22.1700000   19.6670000  
H 13.8650000   19.1500000   18.5570000  
C 13.6890000   22.8660000   21.7920000  
C 14.5980000   23.9750000   21.8790000  
C 14.0610000   25.1920000   22.1850000  
C 12.7540000   25.4790000   22.3880000  
C 11.8310000   24.4030000   22.4120000  
C 12.3490000   23.0870000   22.1290000  
C 16.0130000   24.1980000   21.6500000  
C 16.2340000   25.5760000   21.7180000  
N 15.0410000   26.1290000   22.1040000  
O 18.6390000   25.6730000   21.3480000  
C 17.4900000   26.3980000   21.4620000  
O 17.5280000   27.6130000   21.4160000  
O 10.4810000   24.5140000   22.6690000  
O 11.5330000   21.9940000   22.1420000  
H 16.6690000   23.4290000   21.3940000  
H 18.2660000   24.7700000   21.6400000  
H 14.9060000   27.1000000   22.2720000  
H 10.0550000   23.6130000   22.5110000  
H 12.0900000   21.1760000   22.0970000  
H 12.3440000   26.4650000   22.7390000  
