78
010 
C  8.6180000   18.5990000   18.7510000  
C  7.7600000   19.2750000   19.6950000  
C  8.3320000   19.6110000   20.9150000  
C  9.6540000   19.5980000   21.1070000  
C 10.6300000   19.0230000   20.2290000  
C  9.9870000   18.4620000   19.0140000  
C  7.7740000   20.2970000   22.0190000  
C  8.7440000   20.6170000   22.9160000  
N  9.9260000   20.0590000   22.3620000  
O  7.2960000   21.6310000   24.5410000  
C  8.5970000   21.3720000   24.2100000  
O  9.5860000   21.7430000   24.8600000  
O 10.7500000   17.8970000   18.0260000  
O  8.0080000   18.0790000   17.6430000  
H  6.6560000   19.1850000   19.5230000  
H  6.7900000   20.7000000   22.2000000  
H  6.7850000   21.1740000   23.8380000  
H 10.7750000   20.2700000   22.7890000  
H 11.7550000   18.0070000   18.0220000  
H  8.6160000   17.4420000   17.2380000  
C 12.1470000   18.9910000   20.5300000  
C 12.5980000   18.2750000   21.6250000  
C 13.9560000   18.1160000   21.8520000  
C 14.9980000   18.6660000   21.0860000  
C 14.5410000   19.4240000   19.9550000  
C 13.1580000   19.6710000   19.7770000  
C 11.9860000   17.4620000   22.6550000  
C 12.9390000   16.8750000   23.3940000  
N 14.1730000   17.3290000   22.9500000  
O 11.4280000   15.7840000   24.9220000  
C 12.7120000   15.9790000   24.5310000  
O 13.6950000   15.6010000   25.0960000  
O 15.4800000   20.0460000   19.1960000  
O 12.6620000   20.5060000   18.8080000  
H 10.9710000   17.4900000   23.0080000  
H 10.8970000   16.3330000   24.2800000  
H 15.0590000   17.1760000   23.4040000  
H 16.3360000   19.5560000   19.2400000  
H 11.6820000   20.7250000   18.9520000  
C 16.4450000   18.4960000   21.4530000  
C 17.0350000   17.1960000   21.6050000  
C 18.3260000   17.0650000   22.1300000  
C 19.0750000   18.1590000   22.7030000  
C 18.4280000   19.4570000   22.6770000  
C 17.1750000   19.6490000   21.9730000  
C 16.6550000   15.8990000   21.1340000  
C 17.7330000   15.0530000   21.4820000  
N 18.7310000   15.7910000   22.0900000  
O 16.9440000   13.0760000   20.4300000  
C 17.8660000   13.6020000   21.2320000  
O 18.7920000   12.8710000   21.6300000  
O 19.1680000   20.5650000   23.0040000  
O 16.6810000   20.9310000   21.9430000  
H 15.7820000   15.6670000   20.5510000  
H 16.3280000   13.7880000   20.4100000  
H 19.6710000   15.4640000   22.3840000  
H 20.0920000   20.3950000   23.1510000  
H 17.0400000   21.5240000   22.5880000  
C 20.4800000   17.9540000   23.3410000  
C 21.4800000   17.4130000   22.5040000  
C 22.7310000   17.2480000   22.9710000  
C 23.1320000   17.7390000   24.2520000  
C 22.1470000   18.2130000   25.1040000  
C 20.8130000   18.3940000   24.6840000  
C 21.4590000   17.0530000   21.0660000  
C 22.7500000   16.6710000   20.6760000  
N 23.4900000   16.8580000   21.8800000  
O 22.3210000   16.2720000   18.4150000  
C 23.1960000   16.1560000   19.4140000  
O 24.3240000   15.7260000   19.2390000  
O 22.5540000   18.7340000   26.3070000  
O 19.8440000   18.9750000   25.4490000  
H 20.5600000   16.9220000   20.4720000  
H 21.5190000   16.5270000   18.8590000  
H 24.5050000   16.6120000   21.9250000  
H 21.7800000   19.0620000   26.8180000  
H 18.9760000   18.5770000   25.2280000  
H 24.1710000   17.6520000   24.5040000  
