78
010 
C 19.9750000   12.6970000   21.7510000  
C 19.5740000   11.3390000   21.4210000  
C 18.2350000   11.1680000   21.1360000  
C 17.3600000   12.1970000   21.1060000  
C 17.6970000   13.5540000   21.3020000  
C 19.0540000   13.7390000   21.6200000  
C 17.4740000    9.9660000   20.7550000  
C 16.1480000   10.4190000   20.5810000  
N 16.1210000   11.7850000   20.7400000  
O 15.3370000    8.2180000   19.8620000  
C 15.0130000    9.4950000   20.2660000  
O 13.8210000    9.7710000   20.4900000  
O 19.3740000   14.9710000   22.1100000  
O 21.2970000   12.9770000   21.9220000  
H 20.3050000   10.6310000   21.4110000  
H 17.8560000    8.9450000   20.6210000  
H 16.2700000    8.3110000   19.6770000  
H 15.3180000   12.3840000   20.8720000  
H 18.6090000   15.3420000   22.5290000  
H 21.3500000   13.9210000   21.9870000  
C 16.6690000   14.7100000   21.2540000  
C 15.9600000   15.0940000   22.3490000  
C 15.3030000   16.3140000   22.3800000  
C 15.4170000   17.3380000   21.4620000  
C 16.1960000   16.9700000   20.3330000  
C 16.7890000   15.6730000   20.2000000  
C 15.6340000   14.2920000   23.5270000  
C 14.8110000   15.1530000   24.2930000  
N 14.6940000   16.4180000   23.6390000  
O 14.4300000   13.6930000   26.1000000  
C 14.2410000   14.9230000   25.6340000  
O 13.6320000   15.7470000   26.2670000  
O 16.4490000   17.9450000   19.3050000  
O 17.7260000   15.5330000   19.2030000  
H 15.9990000   13.2580000   23.7550000  
H 14.5290000   13.2230000   25.3150000  
H 14.1960000   17.1870000   23.9560000  
H 16.0650000   18.7950000   19.5580000  
H 17.6440000   16.3050000   18.5920000  
C 14.5940000   18.6340000   21.5930000  
C 15.1840000   19.5860000   22.4720000  
C 14.7190000   20.8600000   22.4610000  
C 13.5010000   21.2600000   21.8560000  
C 12.8710000   20.3110000   20.9820000  
C 13.4880000   19.0370000   20.7980000  
C 16.3570000   19.5360000   23.3340000  
C 16.5610000   20.8540000   23.8020000  
N 15.4530000   21.6800000   23.3380000  
O 18.6280000   20.5040000   24.9340000  
C 17.7050000   21.4060000   24.5510000  
O 17.8840000   22.5500000   24.8250000  
O 11.7770000   20.6540000   20.3890000  
O 12.8950000   18.0740000   19.9880000  
H 16.9400000   18.6200000   23.4710000  
H 18.1650000   19.6840000   24.9140000  
H 15.3320000   22.6490000   23.5730000  
H 11.7120000   21.6140000   20.5320000  
H 11.8950000   18.3510000   19.9980000  
C 13.0730000   22.6820000   21.8750000  
C 13.9500000   23.6900000   21.3320000  
C 13.6700000   25.0190000   21.1610000  
C 12.5300000   25.5280000   21.6500000  
C 11.6890000   24.6980000   22.3480000  
C 11.9080000   23.2950000   22.3750000  
C 15.2110000   23.5780000   20.6710000  
C 15.6820000   24.8810000   20.3700000  
N 14.6610000   25.7930000   20.6120000  
O 17.8050000   24.0990000   19.6650000  
C 16.9970000   25.1880000   19.6960000  
O 17.2490000   26.2740000   19.2000000  
O 10.5830000   25.2600000   22.8990000  
O 11.0380000   22.5420000   23.1210000  
H 15.8040000   22.7170000   20.4610000  
H 17.3440000   23.5510000   20.2920000  
H 14.6160000   26.7560000   20.3590000  
H 10.1410000   24.6030000   23.4990000  
H 11.2750000   21.6050000   22.9480000  
H 12.3380000   26.6560000   21.6360000  
