78
010 
C  8.2570000   18.7030000   22.5320000  
C  7.7070000   18.2410000   21.2810000  
C  8.5240000   17.6840000   20.3260000  
C  9.8150000   17.4780000   20.5990000  
C 10.4300000   17.9070000   21.7520000  
C  9.6120000   18.4470000   22.7500000  
C  8.1560000   17.0240000   19.1150000  
C  9.3700000   16.4260000   18.6410000  
N 10.3460000   16.7200000   19.5760000  
O  8.4670000   15.9610000   16.5360000  
C  9.5290000   15.7790000   17.2970000  
O 10.5380000   15.2120000   16.9500000  
O 10.2070000   18.7980000   23.9630000  
O  7.5820000   19.3290000   23.4840000  
H  6.6980000   18.4690000   21.0430000  
H  7.2140000   17.1800000   18.5850000  
H  7.7710000   16.4790000   17.0070000  
H 11.3330000   16.4640000   19.4910000  
H 11.1550000   18.4200000   23.9720000  
H  8.2200000   19.7400000   24.1040000  
C 11.8860000   17.9110000   21.9110000  
C 12.6940000   18.6130000   20.9660000  
C 14.0130000   18.6280000   21.1370000  
C 14.7580000   17.7740000   21.9810000  
C 13.9570000   16.9150000   22.7580000  
C 12.5500000   16.9280000   22.7590000  
C 12.4180000   19.5720000   19.9520000  
C 13.6460000   20.0380000   19.4640000  
N 14.6290000   19.5150000   20.3250000  
O 12.7440000   21.3090000   17.6530000  
C 13.8820000   20.9820000   18.3470000  
O 14.9890000   21.3910000   18.0200000  
O 14.6150000   16.1290000   23.6370000  
O 11.8940000   16.2130000   23.7660000  
H 11.4810000   19.8750000   19.5480000  
H 12.1140000   20.5790000   17.7620000  
H 15.6250000   19.7030000   20.3880000  
H 15.5870000   16.2580000   23.5990000  
H 12.6040000   15.8400000   24.3700000  
C 16.2180000   17.8700000   22.1190000  
C 16.8010000   18.6750000   23.0840000  
C 18.1810000   18.8270000   23.1900000  
C 19.0940000   18.3880000   22.2270000  
C 18.5150000   17.5620000   21.1850000  
C 17.1170000   17.3570000   21.1030000  
C 16.2360000   19.3610000   24.2600000  
C 17.3310000   19.8030000   24.9850000  
N 18.5290000   19.4370000   24.3860000  
O 16.2160000   20.7640000   26.9270000  
C 17.3780000   20.4770000   26.3210000  
O 18.4800000   20.6460000   26.8850000  
O 19.2950000   17.2110000   20.0630000  
O 16.6680000   16.7360000   19.9970000  
H 15.1870000   19.5550000   24.4870000  
H 15.5360000   20.5730000   26.2390000  
H 19.4760000   19.4810000   24.7060000  
H 20.2480000   17.3220000   20.3000000  
H 17.4210000   16.2750000   19.5610000  
C 20.5550000   18.5150000   22.4260000  
C 21.2860000   17.3550000   22.6140000  
C 22.6080000   17.4530000   22.8600000  
C 23.3070000   18.6800000   22.8140000  
C 22.5700000   19.8730000   22.7620000  
C 21.1740000   19.8110000   22.5090000  
C 20.9200000   15.9250000   22.6810000  
C 22.1050000   15.2630000   22.8660000  
N 23.1420000   16.1760000   22.9700000  
O 21.2210000   13.0430000   23.1500000  
C 22.2930000   13.8420000   23.0900000  
O 23.3750000   13.4320000   23.3540000  
O 23.1790000   21.0600000   22.9360000  
O 20.5230000   20.9770000   22.3290000  
H 19.9350000   15.4580000   22.6000000  
H 20.4830000   13.5170000   22.6710000  
H 24.1150000   15.9210000   23.0570000  
H 22.5810000   21.7140000   22.6160000  
H 19.5670000   20.7000000   22.3250000  
H 24.3920000   18.6970000   22.9240000  
