78
010 
C 15.9480000   12.3120000   16.9370000  
C 14.8510000   11.5260000   17.1920000  
C 13.9550000   11.9220000   18.1930000  
C 14.1390000   13.1220000   18.8440000  
C 15.1510000   14.0260000   18.5600000  
C 16.0070000   13.5950000   17.5190000  
C 12.8140000   11.3410000   18.8470000  
C 12.1760000   12.3280000   19.6300000  
N 13.1060000   13.3480000   19.7180000  
O 10.3820000   11.0400000   20.3440000  
C 10.9210000   12.2630000   20.4040000  
O 10.4940000   13.2420000   20.9830000  
O 17.0690000   14.3790000   17.2570000  
O 16.8340000   12.0350000   16.0100000  
H 14.8230000   10.4840000   16.7850000  
H 12.4220000   10.3460000   18.6860000  
H 11.0730000   10.5690000   19.8460000  
H 12.8560000   14.2810000   20.0520000  
H 17.2900000   15.0360000   17.9800000  
H 17.2570000   12.9060000   15.7140000  
C 15.4170000   15.2970000   19.3080000  
C 15.8810000   15.1840000   20.6190000  
C 15.8930000   16.2490000   21.4500000  
C 15.5860000   17.5610000   21.0310000  
C 15.1780000   17.7710000   19.6770000  
C 15.0430000   16.6180000   18.8590000  
C 16.3980000   14.0480000   21.3700000  
C 16.6610000   14.5480000   22.6440000  
N 16.3920000   15.9240000   22.7140000  
O 17.5160000   12.4270000   23.4110000  
C 17.2170000   13.7220000   23.7320000  
O 17.5470000   14.2300000   24.8020000  
O 14.8890000   19.0130000   19.1670000  
O 14.5000000   16.7060000   17.6080000  
H 16.5110000   13.0550000   20.9730000  
H 17.0640000   12.2630000   22.5320000  
H 16.5230000   16.4460000   23.5650000  
H 15.1430000   19.7700000   19.7760000  
H 14.3030000   17.6720000   17.5510000  
C 15.6050000   18.6160000   22.0470000  
C 16.5940000   19.6020000   21.9800000  
C 16.7620000   20.5640000   22.9190000  
C 16.1270000   20.5680000   24.1550000  
C 15.1360000   19.5080000   24.2770000  
C 14.8260000   18.6270000   23.2690000  
C 17.5480000   19.8350000   20.9280000  
C 18.2130000   21.0340000   21.3110000  
N 17.7860000   21.4680000   22.5940000  
O 19.8400000   20.9770000   19.6970000  
C 19.3340000   21.6700000   20.6730000  
O 19.7840000   22.7410000   21.0070000  
O 14.5460000   19.2030000   25.4590000  
O 13.9420000   17.6210000   23.5100000  
H 17.6810000   19.2370000   20.0040000  
H 19.4140000   20.1160000   19.8110000  
H 18.0960000   22.2580000   23.1100000  
H 14.5210000   19.8500000   26.1850000  
H 13.6150000   17.6130000   24.4790000  
C 16.1610000   21.7220000   25.1240000  
C 15.7090000   23.0280000   24.7710000  
C 15.5470000   24.0240000   25.7380000  
C 15.9250000   23.8710000   27.1010000  
C 16.5480000   22.6370000   27.4420000  
C 16.5560000   21.5400000   26.4590000  
C 15.1910000   23.6060000   23.5570000  
C 14.7660000   24.9480000   23.8480000  
N 14.8750000   25.1450000   25.2450000  
O 14.3900000   25.5430000   21.5960000  
C 14.3620000   25.9760000   22.8780000  
O 14.0240000   27.1210000   23.2070000  
O 16.9840000   22.4490000   28.7310000  
O 16.9680000   20.3270000   26.8570000  
H 15.1860000   23.1090000   22.5570000  
H 14.8220000   24.7130000   21.5970000  
H 14.4590000   25.8450000   25.8300000  
H 17.0750000   21.4680000   28.8820000  
H 17.2210000   19.8960000   26.0450000  
H 15.6950000   24.6790000   27.8610000  
