78
010 
C 14.9320000   10.9410000   19.1560000  
C 14.1570000   11.1640000   18.0160000  
C 13.7650000   12.4710000   17.6880000  
C 14.2470000   13.5630000   18.3610000  
C 14.9680000   13.4240000   19.5490000  
C 15.3710000   12.0590000   19.8560000  
C 12.9210000   12.9830000   16.6190000  
C 12.9910000   14.3960000   16.6800000  
N 13.8730000   14.7560000   17.7550000  
O 11.5220000   14.7270000   14.9510000  
C 12.3250000   15.3550000   15.7290000  
O 12.3750000   16.5960000   15.7270000  
O 16.1320000   11.8860000   20.9810000  
O 15.3110000    9.6840000   19.4650000  
H 13.8870000   10.4070000   17.3960000  
H 12.4470000   12.4630000   15.8580000  
H 11.4840000   13.8030000   15.3460000  
H 14.1810000   15.6700000   18.0600000  
H 16.4130000   12.8310000   21.2700000  
H 15.9780000    9.7610000   20.1530000  
C 15.3690000   14.6500000   20.2670000  
C 14.3030000   15.5040000   20.6370000  
C 14.5770000   16.7830000   21.1330000  
C 15.8670000   17.2640000   21.3090000  
C 16.9770000   16.3900000   20.9190000  
C 16.7250000   15.0810000   20.4650000  
C 12.8750000   15.2810000   20.7300000  
C 12.3980000   16.5030000   21.2440000  
N 13.4750000   17.4440000   21.4300000  
O 10.1590000   15.7890000   21.4340000  
C 11.0410000   16.8290000   21.6610000  
O 10.6780000   17.7960000   22.3600000  
O 18.2560000   16.6970000   21.0430000  
O 17.7620000   14.2690000   20.0480000  
H 12.3590000   14.3370000   20.6900000  
H 10.7380000   15.0690000   21.1420000  
H 13.4990000   18.3920000   21.7730000  
H 18.4310000   17.6130000   21.2280000  
H 18.6250000   14.7630000   19.9940000  
C 16.1080000   18.6160000   21.9120000  
C 15.5380000   18.9600000   23.1400000  
C 15.7440000   20.2000000   23.6740000  
C 16.4980000   21.2240000   23.1490000  
C 17.0750000   20.9060000   21.8730000  
C 16.8860000   19.6330000   21.2750000  
C 14.6030000   18.2940000   24.0570000  
C 14.4590000   19.1200000   25.1510000  
N 15.0500000   20.3470000   24.9000000  
O 13.1700000   17.5640000   26.6250000  
C 13.7030000   18.8440000   26.3990000  
O 13.5180000   19.7610000   27.1680000  
O 17.9680000   21.7630000   21.3280000  
O 17.4690000   19.4370000   20.0300000  
H 14.1750000   17.2800000   23.9440000  
H 13.4850000   17.0340000   25.9040000  
H 14.9540000   21.1150000   25.5360000  
H 18.1040000   22.5900000   21.8410000  
H 17.4730000   20.2510000   19.4730000  
C 16.8970000   22.4440000   23.8430000  
C 18.1520000   22.6540000   24.4330000  
C 18.4510000   23.8220000   24.9960000  
C 17.6190000   24.9100000   25.0880000  
C 16.3490000   24.7560000   24.5020000  
C 15.9670000   23.5290000   23.8800000  
C 19.3210000   21.7320000   24.6680000  
C 20.2950000   22.4610000   25.3500000  
N 19.7680000   23.7160000   25.5180000  
O 21.8870000   20.6640000   25.3810000  
C 21.6470000   22.0110000   25.6450000  
O 22.4720000   22.7840000   26.1230000  
O 15.5100000   25.8050000   24.5120000  
O 14.7110000   23.4620000   23.3610000  
H 19.4720000   20.6920000   24.4570000  
H 21.0730000   20.2250000   25.0180000  
H 20.1850000   24.4760000   26.0660000  
H 14.6300000   25.4860000   24.2930000  
H 14.6720000   22.7540000   22.6950000  
H 17.9310000   25.8310000   25.5760000  
