78
010 
C 20.1630000   15.3090000   27.2180000  
C 19.8870000   13.9430000   27.2310000  
C 18.7990000   13.5610000   26.5660000  
C 17.9960000   14.3550000   25.8350000  
C 18.2890000   15.7420000   25.6090000  
C 19.3740000   16.2320000   26.4020000  
C 18.2910000   12.2390000   26.2440000  
C 17.1690000   12.3560000   25.4150000  
N 16.9870000   13.7340000   25.2050000  
O 16.7550000   10.0780000   25.1570000  
C 16.4020000   11.3080000   24.8120000  
O 15.4430000   11.3740000   24.0990000  
O 19.7170000   17.5740000   26.3650000  
O 21.1830000   15.8430000   27.9780000  
H 20.5990000   13.2450000   27.7540000  
H 18.7320000   11.3180000   26.5900000  
H 17.6300000   10.2730000   25.6320000  
H 16.2390000   14.1580000   24.7700000  
H 19.0950000   17.9280000   25.6960000  
H 21.0430000   16.7730000   28.1660000  
C 17.4680000   16.5570000   24.6500000  
C 16.0790000   16.7690000   24.8180000  
C 15.4230000   17.3930000   23.7980000  
C 15.9370000   17.7790000   22.5220000  
C 17.3260000   17.5400000   22.3550000  
C 18.0870000   16.9730000   23.4190000  
C 15.0400000   16.3840000   25.6980000  
C 13.8210000   16.9570000   25.2480000  
N 14.0620000   17.4280000   23.9760000  
O 12.5270000   16.3710000   27.1420000  
C 12.5780000   16.9490000   25.9200000  
O 11.5260000   17.4330000   25.5060000  
O 17.9640000   17.9190000   21.2280000  
O 19.4000000   16.7100000   23.2010000  
H 15.1390000   15.8560000   26.6920000  
H 13.4250000   16.1130000   27.2660000  
H 13.3270000   17.5100000   23.3160000  
H 17.2780000   17.9850000   20.4930000  
H 19.5110000   16.4480000   22.3090000  
C 15.1360000   18.4830000   21.4930000  
C 15.2920000   19.8590000   21.1410000  
C 14.5230000   20.4250000   20.2100000  
C 13.5260000   19.7900000   19.4700000  
C 13.3940000   18.3940000   19.7140000  
C 14.1080000   17.7210000   20.7280000  
C 16.1620000   20.8660000   21.6990000  
C 15.9640000   22.0270000   20.9430000  
N 14.9030000   21.7540000   19.9750000  
O 17.6800000   23.2720000   22.1400000  
C 16.8010000   23.1910000   21.0920000  
O 16.7280000   24.1070000   20.3160000  
O 12.4900000   17.6870000   18.9380000  
O 13.9070000   16.3830000   20.9710000  
H 16.8930000   20.8110000   22.4090000  
H 17.6990000   22.4830000   22.6660000  
H 14.6800000   22.2780000   19.1360000  
H 11.8410000   18.2660000   18.5040000  
H 13.2640000   16.0680000   20.3430000  
C 12.8100000   20.5440000   18.4010000  
C 13.5630000   20.7610000   17.2280000  
C 13.0650000   21.4210000   16.1500000  
C 11.8420000   22.1200000   16.2880000  
C 11.0620000   21.8410000   17.4110000  
C 11.5060000   20.9540000   18.4130000  
C 14.8130000   20.1960000   16.8150000  
C 15.1010000   20.6710000   15.5280000  
N 14.0380000   21.4480000   15.1630000  
O 17.1160000   19.4380000   15.2030000  
C 16.2560000   20.3100000   14.6940000  
O 16.5100000   20.8310000   13.6180000  
O  9.7980000   22.3320000   17.4660000  
O 10.5820000   20.6350000   19.3980000  
H 15.4970000   19.5850000   17.3660000  
H 16.8640000   19.2940000   16.1000000  
H 13.9840000   21.6640000   14.1830000  
H  9.4680000   21.9650000   18.2870000  
H 10.9590000   19.9790000   20.0210000  
H 11.5050000   22.6380000   15.4550000  
