78
010 
C  9.1670000   21.3850000   20.1140000  
C  8.0450000   20.6400000   20.5220000  
C  8.3230000   19.5480000   21.2890000  
C  9.5890000   19.1000000   21.4460000  
C 10.7820000   19.7350000   20.9340000  
C 10.5310000   20.9810000   20.3070000  
C  7.4560000   18.5620000   21.9460000  
C  8.3080000   17.6020000   22.4720000  
N  9.6300000   17.9360000   22.2330000  
O  6.6110000   16.1890000   23.2280000  
C  7.9200000   16.3970000   23.2430000  
O  8.7170000   15.6720000   23.7590000  
O 11.5800000   21.6330000   19.7760000  
O  8.9220000   22.5540000   19.4070000  
H  7.0760000   20.9350000   20.3990000  
H  6.3780000   18.6190000   22.1140000  
H  6.3000000   16.8950000   22.6940000  
H 10.4100000   17.3180000   22.4350000  
H 12.3210000   21.6060000   20.4420000  
H  9.5800000   22.6580000   18.7120000  
C 12.1910000   19.2670000   21.2640000  
C 12.7250000   17.9950000   20.7690000  
C 13.9830000   17.5890000   21.0510000  
C 14.8640000   18.2300000   21.9710000  
C 14.3180000   19.4160000   22.5390000  
C 13.0440000   19.9420000   22.1410000  
C 12.1130000   17.0240000   19.9230000  
C 13.1080000   16.0610000   19.7540000  
N 14.3000000   16.3890000   20.3750000  
O 11.6930000   14.7170000   18.4720000  
C 12.9190000   14.8560000   18.9290000  
O 13.7750000   14.0160000   18.7070000  
O 15.0880000   20.1950000   23.3400000  
O 12.6510000   21.0990000   22.7010000  
H 11.1650000   17.0600000   19.3950000  
H 11.4470000   15.5440000   18.9470000  
H 15.1180000   15.7350000   20.4130000  
H 15.9600000   19.9290000   23.3510000  
H 13.3890000   21.2960000   23.2220000  
C 16.2540000   17.7570000   22.3420000  
C 17.2720000   17.7700000   21.3450000  
C 18.5160000   17.4630000   21.6690000  
C 18.9720000   17.0570000   22.9390000  
C 17.9580000   16.9720000   23.9330000  
C 16.6020000   17.2600000   23.6000000  
C 17.1700000   18.0360000   19.9480000  
C 18.4770000   17.8790000   19.4610000  
N 19.3250000   17.5270000   20.5510000  
O 17.7280000   18.0860000   17.1520000  
C 18.7850000   17.9010000   17.9750000  
O 19.9680000   17.9370000   17.6270000  
O 18.3460000   16.5600000   25.2270000  
O 15.6460000   17.1570000   24.5730000  
H 16.3000000   18.3800000   19.3490000  
H 17.0330000   17.6270000   17.6930000  
H 20.3400000   17.4180000   20.4570000  
H 19.2820000   16.2690000   25.1720000  
H 16.1090000   16.9940000   25.4130000  
C 20.4570000   16.8410000   23.2060000  
C 21.2770000   17.8070000   23.7620000  
C 22.5730000   17.5550000   23.9720000  
C 23.1810000   16.3310000   23.6210000  
C 22.3990000   15.3250000   23.1290000  
C 21.0540000   15.6170000   22.8280000  
C 21.0870000   19.1780000   23.9630000  
C 22.2960000   19.6970000   24.3860000  
N 23.2550000   18.6730000   24.4010000  
O 21.4290000   21.8130000   24.8770000  
C 22.5480000   21.0950000   24.7170000  
O 23.5890000   21.5390000   25.0230000  
O 22.9810000   14.0940000   22.8860000  
O 20.3060000   14.7120000   22.1180000  
H 20.1380000   19.7260000   23.9220000  
H 20.7180000   21.2270000   24.5660000  
H 24.2890000   18.7160000   24.4970000  
H 22.4290000   13.7050000   22.1900000  
H 19.6450000   15.1910000   21.5070000  
H 24.2160000   16.2850000   23.7290000  
