78
010 
C 13.1090000   17.1700000   28.8630000  
C 12.6320000   18.4150000   29.3330000  
C 12.5150000   19.4640000   28.4290000  
C 12.9510000   19.2840000   27.1960000  
C 13.5620000   18.1660000   26.6590000  
C 13.5670000   17.0460000   27.5190000  
C 12.0500000   20.7960000   28.5920000  
C 12.2190000   21.4040000   27.3400000  
N 12.9140000   20.4950000   26.4680000  
O 11.1270000   23.4170000   27.9340000  
C 11.8050000   22.7660000   26.9330000  
O 12.1420000   23.2580000   25.8770000  
O 14.0610000   15.9070000   27.0280000  
O 13.2930000   16.1510000   29.6730000  
H 12.2900000   18.5640000   30.3540000  
H 11.6790000   21.2830000   29.4850000  
H 11.1870000   22.7990000   28.6600000  
H 12.9740000   20.6400000   25.4940000  
H 14.2090000   16.0890000   26.0700000  
H 13.8800000   15.5070000   29.1860000  
C 14.1000000   18.0690000   25.2810000  
C 15.4670000   18.2120000   25.0760000  
C 15.9200000   18.2510000   23.8270000  
C 15.1630000   18.1160000   22.6300000  
C 13.7530000   17.9280000   22.8840000  
C 13.2410000   17.9790000   24.1960000  
C 16.5790000   18.5250000   25.9250000  
C 17.7520000   18.3990000   25.0950000  
N 17.2950000   18.3770000   23.8060000  
O 19.3610000   18.8900000   26.8410000  
C 19.1760000   18.6680000   25.5120000  
O 20.0810000   18.7120000   24.7140000  
O 12.7850000   17.6930000   21.8380000  
O 11.8890000   17.9020000   24.4130000  
H 16.4970000   18.8390000   26.9740000  
H 18.4710000   18.8600000   27.2250000  
H 17.9070000   18.1480000   22.9630000  
H 13.2120000   17.9540000   20.9990000  
H 11.4830000   17.5300000   23.6090000  
C 15.8030000   18.2450000   21.2970000  
C 15.6000000   17.0960000   20.4050000  
C 16.2410000   17.0760000   19.2220000  
C 17.1610000   18.0650000   18.7320000  
C 17.4380000   19.1310000   19.6770000  
C 16.7590000   19.2180000   20.9270000  
C 14.9890000   15.7620000   20.5640000  
C 15.2490000   15.0640000   19.3840000  
N 16.0750000   15.9140000   18.5420000  
O 14.1630000   13.0500000   20.0440000  
C 14.9080000   13.6160000   19.0900000  
O 15.2670000   12.9970000   18.0480000  
O 18.3390000   20.1460000   19.3090000  
O 16.9860000   20.2890000   21.6640000  
H 14.5910000   15.3570000   21.4470000  
H 14.2180000   13.6370000   20.7560000  
H 16.5870000   15.6270000   17.7010000  
H 18.6590000   19.9640000   18.3730000  
H 17.2010000   21.0280000   21.0790000  
C 17.9470000   17.8180000   17.5240000  
C 17.3490000   17.7270000   16.2360000  
C 18.1030000   17.4130000   15.0810000  
C 19.3550000   16.9250000   15.1560000  
C 20.0320000   16.9620000   16.3690000  
C 19.3030000   17.3960000   17.5490000  
C 15.9550000   17.9440000   15.8560000  
C 16.0430000   17.8550000   14.4390000  
N 17.3400000   17.5820000   13.9800000  
O 13.7320000   18.1320000   14.0860000  
C 14.8960000   17.8300000   13.5300000  
O 14.9870000   17.5950000   12.3810000  
O 21.3550000   16.5570000   16.4180000  
O 19.9750000   17.3850000   18.7490000  
H 15.0870000   18.1500000   16.4900000  
H 13.9640000   18.1910000   14.9990000  
H 17.6560000   17.6450000   13.0460000  
H 21.6370000   16.4920000   17.3850000  
H 19.3010000   17.4180000   19.3910000  
H 19.9750000   16.7190000   14.3010000  
