78
010 
C  8.0890000   18.2630000   23.4600000  
C  7.3360000   18.3300000   22.2870000  
C  8.1240000   18.4120000   21.0600000  
C  9.4770000   18.2390000   21.1250000  
C 10.2370000   18.1910000   22.3070000  
C  9.4770000   18.2900000   23.4180000  
C  7.8180000   18.3800000   19.6700000  
C  9.0110000   18.2500000   18.9220000  
N 10.0670000   18.0750000   19.8440000  
O  7.8470000   18.6420000   16.9480000  
C  9.0110000   18.2800000   17.4360000  
O  9.9710000   18.0180000   16.7580000  
O 10.0650000   18.4240000   24.6340000  
O  7.4290000   18.1760000   24.6690000  
H  6.2670000   18.2830000   22.2690000  
H  6.8440000   18.5110000   19.1620000  
H  7.2610000   18.8770000   17.7240000  
H 11.0330000   17.9350000   19.7060000  
H 10.9840000   18.6380000   24.3900000  
H  8.2450000   18.1020000   25.2180000  
C 11.7210000   18.0910000   22.3250000  
C 12.5500000   19.0540000   21.8170000  
C 13.8850000   18.8730000   21.6760000  
C 14.6640000   17.8590000   22.1170000  
C 13.9250000   16.8390000   22.7180000  
C 12.4610000   16.9490000   22.7650000  
C 12.2920000   20.4190000   21.3800000  
C 13.5010000   20.9240000   20.9680000  
N 14.5050000   19.9790000   21.1650000  
O 12.5310000   22.8920000   20.2520000  
C 13.6660000   22.1980000   20.3180000  
O 14.6760000   22.6390000   19.7990000  
O 14.4990000   15.6970000   23.1120000  
O 11.7980000   15.9210000   23.3540000  
H 11.2820000   20.8430000   21.3910000  
H 11.9530000   22.6650000   20.9860000  
H 15.5090000   20.0330000   20.9460000  
H 15.4430000   15.7340000   22.8940000  
H 12.4970000   15.2970000   23.1310000  
C 16.1780000   17.7290000   22.0030000  
C 16.9730000   17.6680000   23.1190000  
C 18.3620000   17.7770000   23.0490000  
C 19.1750000   17.7620000   21.9380000  
C 18.3570000   17.7220000   20.7660000  
C 16.9220000   17.7630000   20.7830000  
C 16.6240000   17.7870000   24.5180000  
C 17.8180000   17.8700000   25.2360000  
N 18.8500000   17.9210000   24.3080000  
O 16.8320000   17.9560000   27.5010000  
C 17.9420000   18.0800000   26.6820000  
O 19.0130000   18.2410000   27.2670000  
O 18.8970000   17.5880000   19.5060000  
O 16.3510000   18.0120000   19.6100000  
H 15.6180000   17.9730000   24.9070000  
H 16.1340000   17.6400000   26.9160000  
H 19.8150000   18.0520000   24.4200000  
H 19.8060000   17.3200000   19.6270000  
H 17.0790000   18.0750000   18.9870000  
C 20.6650000   17.9370000   21.9770000  
C 21.5500000   16.9310000   21.6150000  
C 22.8940000   17.0530000   21.6070000  
C 23.5340000   18.2470000   22.0320000  
C 22.6830000   19.3330000   22.2720000  
C 21.2540000   19.1500000   22.3400000  
C 21.2730000   15.5590000   21.2640000  
C 22.5520000   15.0360000   20.8510000  
N 23.5410000   15.9650000   21.1240000  
O 21.9450000   12.7590000   20.3670000  
C 22.9360000   13.6890000   20.3750000  
O 24.0810000   13.3990000   20.0620000  
O 23.3300000   20.5470000   22.5300000  
O 20.4260000   20.1380000   22.7490000  
H 20.3040000   15.0470000   21.1770000  
H 21.2500000   13.1720000   20.9200000  
H 24.5000000   15.8100000   20.9150000  
H 22.6790000   21.1990000   22.6520000  
H 19.5030000   19.9370000   22.4630000  
H 24.6470000   18.2750000   22.1500000  
