78
011 
C 22.5210000   15.4410000   27.0320000  
C 22.0850000   15.8510000   28.3020000  
C 20.9240000   16.6270000   28.3330000  
C 20.2070000   16.9200000   27.2210000  
C 20.6750000   16.7170000   25.9150000  
C 21.9270000   16.0080000   25.8470000  
C 20.1680000   17.1540000   29.4770000  
C 19.0300000   17.7500000   28.9500000  
N 19.0700000   17.5910000   27.5360000  
O 18.3380000   18.7660000   31.0000000  
C 17.9820000   18.4450000   29.6600000  
O 16.8320000   18.5960000   29.2150000  
O 22.5130000   15.7820000   24.6810000  
O 23.4680000   14.4740000   26.9670000  
H 22.7380000   15.6200000   29.1280000  
H 20.4570000   17.0690000   30.5130000  
H 19.2560000   18.4730000   31.0970000  
H 18.2140000   17.6290000   26.9970000  
H 21.7790000   16.0080000   24.0200000  
H 23.7840000   14.5540000   26.0510000  
C 19.8340000   17.0080000   24.6970000  
C 19.2940000   18.2730000   24.4780000  
C 18.6420000   18.5990000   23.3520000  
C 18.2330000   17.6850000   22.3800000  
C 18.7890000   16.3560000   22.5130000  
C 19.6280000   16.0200000   23.6240000  
C 19.3990000   19.4770000   25.2450000  
C 18.7810000   20.5310000   24.4970000  
N 18.3170000   19.9960000   23.2470000  
O 19.2410000   22.2140000   26.0840000  
C 18.6270000   21.9200000   24.9390000  
O 18.0430000   22.7150000   24.2310000  
O 18.4690000   15.3960000   21.5680000  
O 19.9920000   14.7030000   23.7750000  
H 19.8460000   19.5240000   26.1890000  
H 19.6410000   21.3690000   26.3390000  
H 17.8730000   20.4350000   22.4550000  
H 17.8060000   15.7650000   20.9520000  
H 19.5860000   14.1850000   23.0860000  
C 17.3060000   18.0610000   21.2650000  
C 17.6410000   18.9000000   20.2330000  
C 16.7320000   19.3260000   19.2720000  
C 15.4120000   18.8450000   19.1570000  
C 14.9910000   18.0410000   20.2530000  
C 15.9230000   17.6770000   21.2710000  
C 18.8300000   19.6520000   20.0310000  
C 18.6520000   20.4480000   18.9270000  
N 17.2720000   20.2700000   18.4680000  
O 20.8730000   21.0170000   18.6280000  
C 19.6830000   21.2560000   18.1970000  
O 19.5000000   22.0280000   17.2920000  
O 13.6500000   17.6090000   20.3260000  
O 15.5030000   16.9230000   22.3600000  
H 19.8000000   19.5150000   20.5510000  
H 20.8840000   20.3570000   19.4030000  
H 16.8580000   20.5650000   17.5200000  
H 13.1250000   18.2370000   19.8230000  
H 14.5860000   16.4700000   22.1930000  
C 14.5650000   19.1820000   17.9690000  
C 14.9550000   18.7690000   16.6970000  
C 14.3530000   19.2350000   15.5390000  
C 13.2910000   20.1400000   15.5600000  
C 12.8840000   20.5810000   16.8710000  
C 13.4500000   20.0980000   18.0800000  
C 16.1340000   18.0470000   16.1940000  
C 16.0920000   18.0750000   14.7810000  
N 15.0100000   18.8270000   14.3970000  
O 18.0920000   16.7680000   14.5370000  
C 17.0720000   17.4790000   13.8670000  
O 17.0500000   17.6590000   12.6760000  
O 11.7920000   21.4360000   16.9860000  
O 13.0300000   20.5120000   19.2810000  
H 16.8800000   17.5620000   16.8040000  
H 17.8510000   16.7140000   15.5240000  
H 14.6810000   18.7860000   13.4450000  
H 11.3910000   21.7650000   16.1480000  
H 12.3550000   21.1660000   19.0700000  
H 12.9500000   20.5830000   14.6040000  
