78
011 
C 14.0650000   24.2140000   24.1040000  
C 12.8140000   24.3190000   23.4300000  
C 12.3570000   23.1940000   22.7840000  
C 13.2320000   22.1550000   22.6920000  
C 14.5340000   22.0280000   23.2240000  
C 14.9020000   23.1040000   24.0710000  
C 11.2310000   22.9320000   21.8940000  
C 11.3940000   21.5760000   21.5480000  
N 12.5980000   21.1410000   22.0460000  
O  9.2570000   21.4740000   20.4390000  
C 10.3670000   20.7950000   20.7380000  
O 10.5510000   19.7030000   20.3370000  
O 16.1280000   23.0420000   24.7150000  
O 14.3980000   25.2220000   24.8740000  
H 12.1760000   25.2430000   23.5400000  
H 10.4070000   23.6040000   21.6440000  
H  9.4560000   22.3130000   20.8050000  
H 12.9460000   20.2270000   21.9640000  
H 16.3350000   22.1180000   24.8650000  
H 15.1670000   24.8990000   25.3770000  
C 15.3720000   20.8060000   22.9800000  
C 15.5920000   20.3780000   21.6430000  
C 16.3320000   19.2940000   21.2790000  
C 17.0270000   18.5600000   22.2600000  
C 16.8930000   18.9340000   23.6260000  
C 16.0250000   20.0360000   23.9890000  
C 15.2040000   21.0460000   20.4150000  
C 15.5360000   20.2200000   19.3430000  
N 16.3540000   19.1950000   19.9160000  
O 14.6470000   21.5890000   17.6230000  
C 15.3530000   20.4290000   17.9280000  
O 15.9520000   19.7740000   17.1170000  
O 17.6550000   18.3080000   24.5290000  
O 15.7410000   20.2060000   25.3270000  
H 14.6530000   22.0160000   20.3060000  
H 14.2660000   21.8800000   18.4710000  
H 16.9100000   18.5360000   19.4470000  
H 18.1110000   17.5400000   24.0890000  
H 16.1350000   19.4890000   25.9620000  
C 17.9650000   17.5220000   21.9430000  
C 19.1960000   17.9180000   21.4660000  
C 20.1680000   16.9870000   21.1120000  
C 20.0650000   15.5980000   21.3170000  
C 18.8360000   15.1740000   21.8600000  
C 17.8360000   16.1340000   22.2170000  
C 19.7770000   19.2080000   21.3910000  
C 21.1060000   19.0430000   21.1480000  
N 21.3720000   17.6920000   20.8830000  
O 21.6560000   21.2880000   21.4540000  
C 22.1240000   20.0800000   21.1050000  
O 23.2410000   19.9320000   20.6210000  
O 18.6350000   13.8410000   22.1010000  
O 16.7400000   15.7950000   22.9380000  
H 19.3450000   20.2440000   21.5510000  
H 20.8240000   21.1040000   21.8680000  
H 22.1480000   17.2520000   20.4350000  
H 19.5480000   13.4600000   21.9690000  
H 16.8720000   14.8850000   23.2240000  
C 21.0950000   14.5850000   21.0770000  
C 22.2660000   14.3800000   21.8790000  
C 23.1990000   13.4030000   21.6270000  
C 23.0500000   12.5920000   20.4950000  
C 21.9420000   12.7450000   19.6830000  
C 20.9630000   13.7740000   19.9370000  
C 22.6870000   15.0220000   23.0800000  
C 23.9150000   14.4490000   23.4800000  
N 24.1570000   13.4080000   22.6230000  
O 24.3470000   15.8090000   25.3810000  
C 24.7200000   14.7510000   24.6810000  
O 25.6810000   14.0520000   25.0300000  
O 21.9370000   12.0370000   18.5950000  
O 19.8000000   13.7970000   19.1540000  
H 22.1330000   15.8000000   23.6450000  
H 23.5550000   16.2700000   24.9850000  
H 24.8980000   12.7650000   22.6400000  
H 22.7480000   11.4580000   18.5910000  
H 19.6770000   12.9270000   18.8000000  
H 23.8230000   11.8680000   20.3490000  
