78
011 
C 23.3910000   14.7490000   19.1370000  
C 24.0530000   13.9860000   20.1490000  
C 23.4310000   13.8700000   21.3520000  
C 22.3320000   14.5280000   21.6500000  
C 21.5520000   15.2710000   20.7560000  
C 22.1340000   15.3840000   19.4470000  
C 23.8190000   13.1370000   22.5520000  
C 22.9250000   13.4950000   23.5600000  
N 21.8600000   14.2040000   22.9160000  
O 24.1710000   12.5440000   25.3130000  
C 23.1310000   13.3030000   25.0000000  
O 22.3650000   13.7690000   25.8060000  
O 21.4030000   16.0600000   18.5220000  
O 23.9430000   15.0030000   17.8880000  
H 24.9800000   13.5510000   19.9000000  
H 24.7720000   12.6300000   22.5640000  
H 24.6650000   12.4240000   24.4450000  
H 21.1510000   14.6230000   23.4440000  
H 20.4580000   15.8860000   18.6730000  
H 23.4110000   15.5710000   17.2890000  
C 20.3400000   15.9140000   21.0920000  
C 20.3860000   16.9000000   22.1510000  
C 19.2260000   17.5420000   22.5710000  
C 18.0310000   17.3920000   21.9030000  
C 17.9500000   16.3690000   20.9060000  
C 19.0590000   15.5870000   20.5190000  
C 21.3960000   17.4490000   23.0010000  
C 20.8500000   18.4530000   23.8050000  
N 19.4560000   18.5060000   23.5740000  
O 22.9370000   19.3250000   24.7080000  
C 21.5640000   19.4170000   24.6590000  
O 20.9850000   20.2180000   25.4110000  
O 16.8110000   16.2070000   20.1090000  
O 18.9110000   14.6490000   19.5330000  
H 22.4490000   17.2140000   23.0650000  
H 23.1210000   18.6180000   24.0840000  
H 18.7660000   19.1690000   23.9440000  
H 16.0200000   16.6430000   20.4870000  
H 18.0460000   14.2710000   19.6160000  
C 16.9080000   18.2990000   22.2220000  
C 17.0430000   19.6870000   21.9870000  
C 15.9180000   20.4530000   22.0890000  
C 14.6700000   20.0590000   22.5210000  
C 14.5240000   18.7030000   22.7320000  
C 15.6260000   17.8790000   22.6040000  
C 18.0670000   20.4270000   21.3080000  
C 17.5110000   21.6280000   20.9780000  
N 16.1800000   21.6910000   21.5410000  
O 19.4310000   22.6140000   19.7430000  
C 18.1750000   22.7510000   20.1680000  
O 17.5030000   23.8010000   20.0790000  
O 13.2410000   18.2660000   23.0910000  
O 15.4920000   16.5150000   22.8030000  
H 19.0070000   20.0180000   20.9660000  
H 19.4460000   21.6000000   19.7870000  
H 15.5970000   22.5390000   21.5420000  
H 12.7350000   19.0130000   23.4240000  
H 14.8940000   16.3500000   23.5390000  
C 13.5180000   20.9580000   22.7450000  
C 12.9060000   21.6460000   21.7040000  
C 11.8020000   22.4340000   21.7770000  
C 11.2310000   22.7190000   23.0790000  
C 11.8050000   22.0370000   24.1570000  
C 12.9580000   21.1960000   24.0320000  
C 13.2300000   21.5420000   20.3130000  
C 12.2040000   22.2250000   19.6080000  
N 11.3450000   22.8720000   20.5350000  
O 13.1650000   21.8950000   17.4590000  
C 12.0840000   22.3250000   18.1440000  
O 11.1260000   22.8400000   17.5600000  
O 11.3560000   22.3790000   25.4300000  
O 13.5070000   20.5720000   25.1720000  
H 14.0390000   20.9560000   19.9430000  
H 13.7940000   21.6150000   18.1430000  
H 10.6690000   23.6360000   20.4390000  
H 10.5090000   22.8820000   25.4480000  
H 13.0300000   20.9000000   25.8550000  
H 10.5410000   23.5370000   23.1560000  
