78
011 
C 13.1940000   23.8500000   19.3780000  
C 12.3190000   23.2590000   18.4360000  
C 12.4240000   21.8640000   18.1860000  
C 13.3270000   21.0720000   18.8720000  
C 14.1850000   21.5760000   19.9410000  
C 14.0840000   22.9930000   20.1430000  
C 11.7860000   20.8820000   17.2880000  
C 12.4480000   19.6310000   17.4480000  
N 13.4770000   19.8240000   18.4250000  
O 11.2120000   18.4380000   15.8720000  
C 12.1630000   18.3620000   16.8410000  
O 12.7330000   17.3180000   17.1320000  
O 14.8880000   23.5820000   21.0340000  
O 13.2320000   25.2330000   19.6240000  
H 11.6040000   23.7740000   17.8420000  
H 10.8660000   21.0740000   16.7220000  
H 11.1170000   19.4150000   15.7260000  
H 14.1990000   19.1360000   18.7210000  
H 15.1130000   22.9280000   21.7210000  
H 13.8070000   25.2720000   20.4090000  
C 15.1590000   20.7060000   20.5910000  
C 16.1900000   20.0110000   19.8280000  
C 17.0100000   19.0510000   20.3520000  
C 16.9550000   18.7580000   21.7030000  
C 16.0100000   19.4690000   22.4720000  
C 15.1080000   20.4090000   21.9670000  
C 16.4640000   20.0590000   18.4830000  
C 17.4710000   19.2090000   18.2450000  
N 17.8690000   18.5410000   19.4400000  
O 17.7310000   19.7900000   15.9640000  
C 18.1320000   19.0130000   16.9840000  
O 18.9940000   18.1690000   16.8060000  
O 16.0380000   19.3670000   23.8470000  
O 14.3220000   21.0930000   22.7990000  
H 16.0220000   20.7430000   17.7450000  
H 17.0960000   20.3790000   16.3230000  
H 18.5010000   17.7690000   19.6230000  
H 16.7310000   18.7890000   24.1380000  
H 14.6010000   20.7000000   23.6380000  
C 17.8830000   17.9200000   22.4230000  
C 19.2860000   18.1680000   22.4090000  
C 20.2550000   17.4200000   23.0210000  
C 19.9550000   16.2550000   23.7690000  
C 18.5880000   15.9780000   23.8350000  
C 17.5490000   16.7770000   23.2320000  
C 20.0040000   19.3030000   21.8020000  
C 21.3550000   19.1970000   22.2870000  
N 21.5380000   17.9310000   22.8270000  
O 21.9860000   21.4740000   21.5740000  
C 22.3830000   20.2720000   22.1380000  
O 23.4200000   20.1550000   22.5910000  
O 18.1420000   14.9870000   24.6540000  
O 16.2250000   16.4860000   23.2930000  
H 19.5100000   20.0760000   21.2010000  
H 21.0670000   21.3350000   21.3300000  
H 22.2960000   17.6420000   23.4210000  
H 19.0020000   14.7260000   25.0690000  
H 16.0890000   15.5440000   23.5060000  
C 20.9560000   15.3440000   24.3200000  
C 21.2180000   15.2040000   25.6350000  
C 22.3000000   14.5520000   26.1440000  
C 23.1860000   13.8990000   25.2970000  
C 22.9690000   13.9510000   23.9000000  
C 21.8810000   14.6540000   23.4260000  
C 20.6360000   15.7920000   26.8010000  
C 21.4100000   15.5350000   27.8910000  
N 22.5030000   14.7760000   27.4740000  
O 20.3610000   17.0320000   29.4650000  
C 21.2270000   15.9630000   29.2950000  
O 21.8450000   15.4790000   30.2330000  
O 23.9260000   13.4280000   23.0810000  
O 21.7890000   14.7990000   22.1080000  
H 19.7660000   16.4670000   26.7070000  
H 20.2160000   17.3110000   28.5170000  
H 23.2900000   14.4030000   27.9560000  
H 24.6970000   13.0630000   23.5020000  
H 22.1820000   13.9790000   21.6920000  
H 24.0500000   13.4330000   25.7370000  
