78
011 
C 15.6900000   22.8320000   27.7190000  
C 14.3490000   22.5560000   27.9980000  
C 13.7600000   21.5240000   27.2610000  
C 14.4620000   20.9600000   26.2150000  
C 15.8240000   21.0810000   26.0100000  
C 16.4440000   22.1000000   26.7490000  
C 12.5260000   20.8780000   27.3770000  
C 12.5070000   19.8850000   26.3640000  
N 13.7540000   19.8690000   25.7490000  
O 10.3100000   18.9490000   26.7650000  
C 11.4590000   18.7930000   26.0720000  
O 11.5380000   17.9610000   25.1780000  
O 17.7790000   22.3440000   26.5480000  
O 16.2960000   23.7280000   28.4890000  
H 13.8700000   23.0230000   28.8200000  
H 11.6860000   21.0590000   28.0970000  
H 10.4130000   19.8140000   27.1520000  
H 14.1580000   19.1680000   25.1090000  
H 17.9010000   21.8110000   25.7230000  
H 17.1840000   23.5880000   28.2700000  
C 16.4760000   20.3440000   24.8800000  
C 16.6910000   21.0720000   23.6550000  
C 17.2800000   20.4660000   22.5850000  
C 17.7320000   19.1120000   22.5360000  
C 17.4900000   18.3900000   23.7210000  
C 16.9590000   18.9640000   24.8740000  
C 16.4220000   22.4040000   23.2330000  
C 16.9030000   22.4960000   21.8930000  
N 17.4600000   21.2950000   21.4870000  
O 15.8990000   24.7120000   21.5950000  
C 16.7390000   23.7690000   21.0430000  
O 17.2490000   23.8510000   19.9260000  
O 17.9340000   17.0790000   23.6800000  
O 16.7980000   18.3020000   25.9890000  
H 16.3750000   23.2510000   23.8450000  
H 15.8120000   24.3960000   22.4570000  
H 17.7600000   21.0170000   20.5830000  
H 18.2320000   16.8080000   22.8130000  
H 17.1860000   17.3690000   25.9160000  
C 18.1430000   18.4020000   21.2860000  
C 19.5190000   18.1140000   21.0180000  
C 19.8740000   17.4180000   19.8690000  
C 18.9780000   16.8480000   18.9480000  
C 17.6690000   17.0590000   19.2370000  
C 17.2490000   17.8880000   20.3020000  
C 20.7940000   18.3770000   21.7130000  
C 21.8180000   17.8880000   20.9450000  
N 21.2520000   17.2710000   19.7880000  
O 23.5650000   18.4610000   22.3090000  
C 23.2900000   17.9360000   21.1680000  
O 24.1540000   17.4250000   20.4920000  
O 16.7820000   16.5510000   18.2870000  
O 15.9750000   18.0950000   20.5540000  
H 21.0120000   18.8620000   22.6490000  
H 22.7590000   18.9460000   22.5530000  
H 21.7270000   16.6670000   19.1130000  
H 17.3330000   16.0760000   17.6070000  
H 15.5870000   17.3490000   20.0470000  
C 19.5100000   16.0870000   17.7630000  
C 20.0300000   14.7960000   17.8050000  
C 20.6140000   14.2690000   16.6880000  
C 20.7450000   14.9500000   15.5040000  
C 20.4310000   16.3270000   15.4710000  
C 19.8790000   16.9140000   16.6670000  
C 20.0160000   13.7390000   18.8240000  
C 20.7290000   12.6790000   18.2850000  
N 21.0520000   12.9470000   16.9510000  
O 20.5710000   11.4080000   20.2600000  
C 21.0360000   11.4360000   18.9470000  
O 21.7000000   10.6100000   18.3870000  
O 20.5690000   16.9890000   14.2570000  
O 19.4790000   18.2640000   16.5960000  
H 19.5960000   13.8510000   19.7920000  
H 20.0580000   12.2890000   20.2560000  
H 21.6360000   12.3500000   16.3850000  
H 20.5800000   17.9210000   14.3650000  
H 18.9850000   18.3330000   15.8280000  
H 21.2630000   14.5180000   14.6730000  
