78
011 
C 19.8770000   20.6250000   28.7140000  
C 18.9060000   20.2400000   29.6490000  
C 17.8200000   19.4810000   29.1400000  
C 17.7990000   19.0210000   27.8470000  
C 18.7530000   19.4070000   26.8740000  
C 19.8060000   20.1670000   27.3580000  
C 16.7070000   18.8300000   29.7340000  
C 16.1210000   18.0290000   28.7660000  
N 16.7070000   18.2340000   27.4900000  
O 14.4050000   17.3330000   30.2500000  
C 14.9020000   17.2460000   28.9780000  
O 14.3070000   16.6120000   28.1000000  
O 20.7920000   20.5300000   26.4750000  
O 20.8200000   21.4470000   29.1460000  
H 19.0040000   20.5020000   30.7360000  
H 16.5250000   18.9090000   30.8040000  
H 14.9340000   18.0210000   30.6320000  
H 16.3580000   17.9200000   26.5960000  
H 20.6960000   20.0960000   25.6530000  
H 21.2840000   21.7390000   28.3650000  
C 18.6070000   19.0750000   25.4120000  
C 17.5940000   19.6080000   24.6450000  
C 17.3860000   19.2080000   23.3900000  
C 18.2420000   18.3990000   22.6510000  
C 19.3060000   17.9300000   23.3630000  
C 19.5020000   18.2140000   24.7420000  
C 16.5570000   20.5760000   25.0280000  
C 15.7450000   20.6520000   23.8940000  
N 16.2860000   19.7610000   22.9100000  
O 14.3940000   22.5050000   24.4140000  
C 14.5430000   21.4790000   23.5910000  
O 13.9300000   21.3220000   22.5760000  
O 20.2120000   17.1660000   22.7210000  
O 20.5330000   17.5510000   25.4360000  
H 16.4140000   21.1200000   25.9710000  
H 15.0070000   22.5170000   25.2070000  
H 15.8490000   19.5450000   22.0060000  
H 20.2210000   17.3310000   21.7400000  
H 21.2270000   17.3330000   24.8460000  
C 17.9300000   18.0680000   21.2360000  
C 18.1400000   19.0230000   20.2310000  
C 17.9960000   18.7040000   18.9360000  
C 17.5560000   17.5450000   18.4570000  
C 17.3110000   16.5230000   19.4530000  
C 17.5140000   16.7760000   20.8550000  
C 18.5100000   20.4210000   20.2960000  
C 18.6530000   20.9170000   18.9890000  
N 18.3840000   19.8000000   18.1430000  
O 18.9870000   23.2220000   19.5110000  
C 18.7970000   22.2930000   18.5710000  
O 18.7160000   22.5850000   17.4280000  
O 17.0510000   15.2500000   19.0510000  
O 17.3140000   15.7980000   21.7670000  
H 18.7930000   20.9710000   21.2010000  
H 18.7050000   22.8290000   20.3650000  
H 18.3430000   19.8920000   17.1480000  
H 16.7890000   15.2710000   18.1550000  
H 17.5930000   16.1140000   22.6290000  
C 17.4550000   17.3250000   17.0290000  
C 18.3610000   16.4370000   16.3350000  
C 18.2250000   16.2690000   14.9760000  
C 17.2880000   16.9890000   14.1680000  
C 16.3860000   17.9060000   14.7830000  
C 16.4970000   18.0240000   16.1850000  
C 19.3220000   15.4850000   16.7260000  
C 19.8570000   14.8400000   15.6090000  
N 19.1680000   15.3540000   14.4890000  
O 21.1690000   13.2990000   16.7080000  
C 20.9560000   13.8220000   15.5230000  
O 21.5800000   13.4310000   14.5220000  
O 15.4020000   18.5730000   14.0360000  
O 15.6490000   18.9240000   16.8060000  
H 19.8180000   15.4050000   17.6820000  
H 20.6300000   13.7300000   17.3800000  
H 19.2940000   15.0720000   13.5170000  
H 15.4500000   18.3210000   13.1170000  
H 15.3220000   19.5610000   16.1580000  
H 17.2050000   16.8520000   13.0670000  
