78
011 
C 23.7330000   13.7340000   20.4410000  
C 24.0770000   13.2510000   21.7240000  
C 23.2710000   13.5910000   22.7800000  
C 22.2560000   14.4800000   22.6150000  
C 21.8810000   15.1490000   21.4300000  
C 22.6600000   14.7500000   20.3100000  
C 23.4650000   13.4000000   24.2010000  
C 22.5310000   14.1880000   24.8530000  
N 21.7780000   14.8390000   23.8490000  
O 22.9050000   13.2520000   26.9670000  
C 22.3200000   14.2490000   26.3330000  
O 21.5860000   15.0280000   26.8890000  
O 22.5090000   15.3040000   19.0630000  
O 24.4050000   13.3880000   19.2840000  
H 24.8690000   12.5380000   21.7780000  
H 24.2090000   12.8040000   24.7090000  
H 23.5080000   12.7150000   26.3950000  
H 21.0730000   15.5660000   24.0060000  
H 21.7540000   15.9370000   19.0010000  
H 24.1380000   14.0010000   18.5090000  
C 20.7170000   16.0850000   21.2000000  
C 20.5720000   17.1400000   22.0860000  
C 19.4130000   17.8150000   22.1430000  
C 18.2300000   17.5420000   21.3810000  
C 18.3570000   16.4830000   20.4190000  
C 19.5640000   15.7290000   20.3620000  
C 21.4900000   17.7930000   22.9710000  
C 20.8060000   18.8220000   23.5810000  
N 19.5330000   18.7920000   23.1030000  
O 22.7260000   19.7970000   24.5490000  
C 21.3770000   19.8830000   24.4140000  
O 20.6560000   20.7050000   25.0410000  
O 17.2870000   16.0600000   19.5770000  
O 19.6670000   14.7210000   19.4740000  
H 22.5320000   17.5720000   23.0260000  
H 22.9370000   19.0220000   24.0110000  
H 18.8370000   19.3800000   23.3350000  
H 16.4530000   16.4100000   19.9640000  
H 18.9160000   14.8110000   18.8810000  
C 16.9740000   18.2620000   21.4930000  
C 16.8900000   19.6090000   21.2120000  
C 15.7300000   20.2870000   21.4050000  
C 14.5640000   19.7780000   21.9860000  
C 14.6380000   18.4010000   22.2980000  
C 15.8560000   17.6810000   22.1250000  
C 17.7880000   20.4950000   20.4880000  
C 17.1610000   21.7920000   20.4620000  
N 15.9090000   21.6200000   21.1470000  
O 18.9530000   22.8180000   19.3050000  
C 17.7580000   23.0520000   20.0080000  
O 17.3460000   24.1920000   20.2090000  
O 13.5080000   17.8580000   22.8120000  
O 15.7890000   16.3070000   22.2720000  
H 18.7830000   20.2520000   20.1030000  
H 19.0360000   21.7940000   19.2030000  
H 15.1030000   22.2680000   21.2510000  
H 12.9430000   18.5890000   23.1230000  
H 15.0510000   15.9910000   22.7390000  
C 13.3420000   20.7110000   22.2560000  
C 12.7850000   21.3360000   21.1880000  
C 11.8530000   22.3260000   21.4020000  
C 11.3370000   22.6680000   22.7130000  
C 11.8910000   21.9570000   23.7980000  
C 12.8650000   20.9460000   23.5620000  
C 13.1060000   21.3230000   19.7810000  
C 12.2210000   22.1290000   19.1190000  
N 11.4340000   22.7510000   20.1360000  
O 13.1550000   21.6990000   17.0280000  
C 12.1530000   22.3450000   17.6280000  
O 11.2680000   22.9550000   16.9890000  
O 11.3820000   22.2700000   24.9800000  
O 13.4320000   20.1970000   24.6190000  
H 13.8470000   20.7200000   19.2490000  
H 13.6460000   21.3640000   17.8450000  
H 10.7920000   23.4780000   19.8680000  
H 10.5630000   22.7720000   24.6940000  
H 12.8450000   20.1250000   25.3380000  
H 10.6380000   23.5300000   22.9140000  
