78
011 
C 13.5240000   23.8520000   24.2530000  
C 12.1400000   23.4570000   24.0790000  
C 11.8650000   22.0770000   23.7860000  
C 12.8610000   21.1710000   23.8800000  
C 14.1980000   21.5330000   23.9100000  
C 14.5040000   22.8570000   24.1740000  
C 10.7140000   21.3380000   23.4610000  
C 11.1270000   20.0230000   23.1150000  
N 12.5210000   19.9260000   23.4140000  
O  8.9640000   19.3080000   22.1970000  
C 10.1780000   18.9720000   22.6350000  
O 10.5000000   17.7810000   22.7840000  
O 15.8150000   23.2250000   24.2370000  
O 13.8410000   25.1240000   24.5130000  
H 11.3070000   24.1140000   24.0850000  
H  9.7000000   21.6720000   23.4930000  
H  9.0230000   20.2370000   22.0330000  
H 13.1580000   19.1800000   23.3190000  
H 16.2940000   22.4870000   23.9380000  
H 14.7810000   25.1400000   24.8630000  
C 15.2360000   20.5310000   23.4180000  
C 15.8620000   20.7260000   22.1460000  
C 16.7240000   19.7890000   21.6360000  
C 17.0610000   18.5940000   22.3130000  
C 16.5540000   18.5060000   23.6450000  
C 15.5920000   19.3840000   24.1380000  
C 15.5710000   21.6350000   20.9970000  
C 16.4430000   21.2490000   19.9210000  
N 17.0970000   20.0560000   20.3210000  
O 15.5420000   22.8410000   18.3470000  
C 16.4520000   21.8820000   18.5430000  
O 17.1000000   21.4630000   17.5910000  
O 17.0290000   17.5180000   24.4550000  
O 15.0900000   19.2500000   25.4360000  
H 14.9790000   22.5120000   21.0190000  
H 14.8720000   22.7600000   19.0350000  
H 17.8070000   19.5640000   19.8340000  
H 17.8560000   17.1920000   24.0620000  
H 14.2520000   19.7820000   25.3730000  
C 18.1430000   17.6890000   21.8590000  
C 19.4570000   18.1440000   21.6800000  
C 20.3970000   17.2560000   21.2460000  
C 20.1160000   15.9610000   20.6910000  
C 18.7660000   15.4930000   20.8550000  
C 17.8080000   16.3610000   21.4570000  
C 20.0900000   19.4260000   21.7400000  
C 21.2940000   19.3490000   21.1440000  
N 21.5610000   17.9630000   20.9910000  
O 21.7790000   21.5770000   21.1360000  
C 22.2190000   20.3730000   20.7270000  
O 23.3360000   20.1970000   20.1440000  
O 18.4270000   14.2280000   20.4870000  
O 16.5010000   15.8950000   21.5550000  
H 19.6000000   20.3700000   22.1280000  
H 20.8400000   21.5070000   21.3200000  
H 22.3720000   17.5920000   20.5330000  
H 19.0160000   14.0270000   19.7560000  
H 16.3840000   15.0560000   21.1290000  
C 21.2470000   15.0330000   20.3090000  
C 22.2280000   14.7640000   21.1960000  
C 23.2910000   13.9770000   20.7350000  
C 23.3910000   13.4950000   19.4390000  
C 22.3600000   13.7340000   18.5730000  
C 21.2780000   14.5210000   18.9950000  
C 22.5120000   15.1700000   22.5140000  
C 23.7240000   14.5150000   22.7990000  
N 24.1210000   13.7420000   21.7450000  
O 23.9540000   15.6080000   24.8690000  
C 24.3370000   14.5460000   24.1580000  
O 25.1810000   13.7150000   24.4370000  
O 22.3240000   13.0870000   17.3430000  
O 20.3060000   14.7230000   18.1280000  
H 21.9060000   15.8690000   23.1050000  
H 23.3300000   16.0760000   24.3240000  
H 24.8420000   13.0800000   21.7880000  
H 23.2860000   12.7930000   17.1570000  
H 20.2960000   13.9760000   17.4920000  
H 24.1020000   12.7380000   19.2670000  
