78
011 
C 23.5730000   16.4440000   17.4420000  
C 23.9120000   15.1210000   17.7870000  
C 23.1200000   14.4160000   18.6620000  
C 22.0160000   15.0120000   19.2270000  
C 21.6790000   16.3690000   18.9810000  
C 22.4720000   17.0970000   18.0230000  
C 23.0010000   12.9820000   18.9640000  
C 21.9450000   12.9080000   19.8980000  
N 21.2820000   14.1310000   20.0010000  
O 22.3090000   10.6740000   20.3260000  
C 21.4930000   11.7180000   20.5680000  
O 20.4740000   11.6450000   21.2450000  
O 22.1650000   18.3630000   17.7400000  
O 24.4660000   17.1100000   16.6730000  
H 24.6770000   14.6300000   17.3240000  
H 23.6830000   12.1550000   18.7390000  
H 22.9710000   10.9460000   19.6190000  
H 20.5300000   14.4410000   20.5670000  
H 21.2870000   18.4420000   18.1130000  
H 24.1600000   18.0660000   16.5850000  
C 20.4950000   16.9910000   19.6910000  
C 20.4550000   17.0090000   21.1580000  
C 19.3090000   17.4270000   21.7480000  
C 18.1600000   17.8890000   21.1030000  
C 18.2280000   18.0080000   19.7010000  
C 19.3710000   17.4920000   18.9750000  
C 21.3820000   16.5600000   22.2120000  
C 20.6680000   16.6910000   23.4130000  
N 19.4240000   17.2600000   23.0750000  
O 22.2470000   16.0400000   25.0890000  
C 20.9970000   16.3700000   24.8290000  
O 20.1790000   16.3620000   25.7120000  
O 17.1480000   18.4070000   19.0000000  
O 19.2660000   17.4220000   17.6290000  
H 22.4060000   16.1730000   21.9930000  
H 22.6710000   15.8730000   24.2330000  
H 18.7890000   17.6080000   23.7770000  
H 16.4840000   18.7650000   19.6340000  
H 18.3920000   17.8780000   17.3470000  
C 16.9230000   18.4040000   21.8790000  
C 17.0160000   19.6750000   22.3400000  
C 16.0250000   20.2370000   23.1170000  
C 14.7710000   19.6250000   23.4910000  
C 14.6320000   18.3250000   22.9030000  
C 15.7080000   17.7310000   22.2010000  
C 18.0490000   20.7100000   22.2610000  
C 17.6510000   21.7540000   23.1590000  
N 16.4150000   21.4860000   23.6360000  
O 19.7270000   22.9990000   22.6800000  
C 18.6150000   22.9350000   23.4870000  
O 18.3980000   23.8040000   24.3340000  
O 13.4540000   17.6350000   23.0800000  
O 15.4890000   16.4310000   21.7660000  
H 19.0590000   20.6070000   21.8310000  
H 19.6070000   22.2240000   22.1370000  
H 15.8990000   22.1000000   24.2520000  
H 12.9550000   17.9980000   23.7660000  
H 15.1440000   15.8060000   22.4130000  
C 13.6530000   20.3230000   24.1190000  
C 13.0640000   21.4850000   23.5680000  
C 12.2090000   22.3050000   24.2920000  
C 11.7350000   21.9000000   25.5040000  
C 12.2350000   20.6810000   26.1230000  
C 13.1670000   19.8590000   25.4060000  
C 13.2540000   22.1200000   22.3120000  
C 12.5110000   23.3580000   22.4100000  
N 11.7850000   23.3660000   23.5690000  
O 13.3030000   24.1390000   20.2680000  
C 12.5550000   24.4290000   21.3280000  
O 11.9600000   25.5060000   21.3860000  
O 11.8500000   20.2800000   27.3790000  
O 13.5930000   18.6920000   25.9670000  
H 13.9630000   21.8830000   21.4540000  
H 13.8080000   23.3670000   20.4950000  
H 11.0770000   24.0850000   23.7590000  
H 10.9820000   20.6360000   27.5660000  
H 13.1380000   18.6320000   26.8140000  
H 10.9660000   22.4140000   26.1140000  
