78
011 
C 24.9180000   16.5540000   23.8860000  
C 24.8490000   15.4310000   24.6780000  
C 23.6330000   14.7910000   24.8410000  
C 22.5080000   15.3660000   24.2940000  
C 22.5070000   16.5230000   23.4530000  
C 23.7750000   17.2200000   23.3510000  
C 23.3540000   13.5060000   25.4780000  
C 21.9750000   13.3540000   25.3190000  
N 21.4680000   14.4980000   24.5950000  
O 21.7610000   11.2860000   26.5570000  
C 21.1480000   12.2270000   25.8290000  
O 19.9530000   12.1500000   25.6890000  
O 23.9090000   18.3430000   22.5780000  
O 26.1740000   17.0900000   23.7450000  
H 25.6830000   15.0140000   25.1520000  
H 24.0370000   12.8470000   25.9460000  
H 22.6300000   11.6210000   26.5310000  
H 20.5250000   14.5210000   24.2070000  
H 23.1500000   18.4840000   22.0800000  
H 26.1580000   17.7520000   23.0460000  
C 21.2710000   17.1280000   22.8400000  
C 20.0900000   17.3700000   23.6460000  
C 18.9360000   17.9580000   23.1810000  
C 18.7120000   18.1810000   21.7980000  
C 19.8210000   17.9410000   20.9610000  
C 21.0540000   17.3920000   21.3990000  
C 19.9160000   17.3490000   25.0960000  
C 18.6830000   17.9920000   25.3950000  
N 18.0560000   18.2850000   24.1760000  
O 18.9440000   17.8670000   27.7320000  
C 18.1200000   18.0830000   26.7260000  
O 16.9150000   18.2900000   26.8770000  
O 19.5530000   18.0680000   19.6250000  
O 22.0270000   17.0770000   20.5400000  
H 20.6720000   17.0830000   25.8510000  
H 19.8140000   17.7830000   27.3260000  
H 17.1120000   18.6810000   24.1070000  
H 18.5810000   18.1270000   19.5710000  
H 21.8590000   17.5120000   19.6490000  
C 17.3670000   18.6710000   21.2580000  
C 17.2830000   20.0380000   20.9460000  
C 16.1350000   20.5590000   20.4080000  
C 14.9440000   19.7930000   20.2790000  
C 15.0670000   18.4300000   20.5750000  
C 16.1900000   17.8430000   21.0290000  
C 18.1520000   21.1200000   21.2150000  
C 17.4010000   22.2790000   21.0740000  
N 16.1380000   21.9370000   20.5730000  
O 19.1360000   23.9430000   21.5970000  
C 17.8490000   23.6690000   21.2170000  
O 17.0060000   24.5780000   20.9240000  
O 13.9870000   17.5840000   20.3830000  
O 16.0880000   16.5330000   21.3230000  
H 19.1720000   21.0690000   21.6170000  
H 19.3600000   23.1120000   21.9960000  
H 15.3710000   22.6190000   20.3340000  
H 13.1580000   18.1630000   20.2510000  
H 15.3950000   16.0290000   20.8610000  
C 13.6060000   20.3470000   19.9680000  
C 13.1330000   20.4700000   18.5980000  
C 11.8430000   20.8330000   18.3700000  
C 10.8770000   20.9910000   19.4280000  
C 11.3130000   20.8250000   20.7500000  
C 12.6610000   20.5190000   21.0570000  
C 13.8000000   20.3240000   17.3040000  
C 12.8500000   20.6230000   16.3520000  
N 11.5920000   20.7900000   17.0320000  
O 14.3490000   20.6320000   14.4310000  
C 13.0810000   20.7670000   14.8580000  
O 12.1730000   20.9440000   14.0290000  
O 10.3120000   21.1190000   21.6840000  
O 12.9770000   20.5090000   22.4120000  
H 14.8660000   20.2630000   17.0680000  
H 14.8020000   20.2920000   15.2040000  
H 10.6950000   21.0150000   16.5180000  
H  9.6540000   21.7400000   21.2810000  
H 12.1260000   20.6780000   22.8850000  
H  9.8890000   21.2730000   19.1730000  
