78
011 
C 22.0670000   15.5260000   16.3670000  
C 22.7730000   14.3810000   16.8100000  
C 22.4680000   13.8120000   18.0540000  
C 21.6480000   14.4750000   18.9110000  
C 20.9080000   15.6670000   18.5500000  
C 21.1640000   16.1410000   17.2470000  
C 22.8720000   12.6850000   18.8160000  
C 22.2210000   12.7940000   20.0620000  
N 21.5230000   13.9680000   20.1670000  
O 22.6970000   10.5460000   20.7270000  
C 22.1840000   11.7500000   21.1120000  
O 21.7640000   11.8720000   22.2130000  
O 20.4920000   17.2170000   16.6670000  
O 22.4510000   15.9350000   15.1320000  
H 23.5500000   13.9090000   16.1670000  
H 23.4020000   11.8060000   18.4550000  
H 22.8300000   10.5160000   19.7510000  
H 20.8530000   14.2110000   20.8350000  
H 19.6430000   17.2770000   17.1190000  
H 21.9070000   16.7430000   14.9600000  
C 19.9530000   16.3830000   19.4590000  
C 20.3120000   17.1550000   20.5930000  
C 19.3390000   17.7830000   21.3180000  
C 17.9240000   17.6850000   21.1180000  
C 17.5330000   16.8050000   20.0610000  
C 18.5140000   16.1310000   19.3400000  
C 21.5760000   17.5700000   21.2430000  
C 21.2220000   18.3260000   22.3540000  
N 19.8510000   18.3270000   22.4350000  
O 23.4020000   18.8710000   23.1500000  
C 22.0690000   19.0020000   23.3310000  
O 21.6640000   19.7020000   24.2230000  
O 16.1840000   16.7630000   19.6370000  
O 18.1580000   15.2080000   18.3880000  
H 22.5430000   17.3750000   20.8980000  
H 23.4310000   18.3730000   22.2910000  
H 19.2650000   18.6450000   23.2370000  
H 15.6180000   17.2270000   20.3200000  
H 17.2350000   15.1940000   18.5090000  
C 16.9730000   18.4000000   21.9820000  
C 16.9780000   19.8360000   22.1490000  
C 16.2270000   20.4940000   23.0800000  
C 15.3560000   19.8320000   23.9440000  
C 15.4260000   18.4010000   23.9140000  
C 16.1350000   17.7250000   22.9220000  
C 17.6950000   20.8920000   21.3870000  
C 17.3480000   22.1100000   22.0490000  
N 16.2870000   21.8570000   22.9840000  
O 19.0010000   23.4130000   20.9440000  
C 17.8820000   23.4770000   21.7030000  
O 17.4660000   24.5540000   22.0500000  
O 14.5510000   17.7780000   24.7320000  
O 16.1390000   16.3500000   22.8540000  
H 18.2630000   20.8010000   20.4710000  
H 19.2470000   22.4260000   20.7940000  
H 15.7110000   22.4440000   23.5360000  
H 13.8390000   18.3450000   25.0160000  
H 15.3770000   16.0520000   23.3830000  
C 14.5880000   20.6000000   24.9480000  
C 13.5060000   21.4590000   24.6440000  
C 12.6210000   22.0320000   25.5390000  
C 12.9520000   22.0200000   26.9130000  
C 14.0410000   21.2010000   27.2960000  
C 14.8280000   20.4280000   26.3620000  
C 13.0900000   21.8850000   23.3060000  
C 11.9510000   22.6780000   23.4640000  
N 11.6080000   22.7240000   24.8270000  
O 11.6620000   23.1610000   21.1630000  
C 11.2400000   23.3770000   22.4070000  
O 10.1980000   23.9730000   22.5630000  
O 14.3780000   21.1160000   28.6350000  
O 15.9250000   19.7060000   26.7110000  
H 13.4810000   21.6060000   22.3560000  
H 12.4570000   22.5890000   21.2230000  
H 10.6930000   23.0010000   25.1710000  
H 13.8030000   21.7710000   29.1130000  
H 16.0430000   19.7680000   27.6360000  
H 12.3460000   22.6010000   27.5300000  
