78
011 
C 22.3420000   16.5930000   15.8130000  
C 22.8360000   15.2370000   16.0970000  
C 22.2500000   14.5660000   17.2210000  
C 21.3260000   15.2570000   18.0170000  
C 20.8000000   16.5680000   17.7010000  
C 21.2550000   17.1940000   16.4630000  
C 22.3110000   13.2130000   17.7100000  
C 21.3850000   13.0810000   18.7530000  
N 20.7840000   14.3790000   18.9270000  
O 21.6880000   10.7320000   18.9290000  
C 21.0500000   11.7870000   19.4800000  
O 20.2960000   11.6110000   20.4190000  
O 20.8080000   18.4160000   16.0820000  
O 22.8350000   17.2180000   14.6690000  
H 23.6150000   14.6400000   15.4740000  
H 22.9260000   12.4220000   17.3610000  
H 22.1000000   11.0740000   18.1560000  
H 20.0700000   14.6050000   19.5810000  
H 19.9200000   18.6110000   16.5030000  
H 22.2780000   17.9620000   14.6000000  
C 19.7470000   17.1630000   18.6540000  
C 20.0730000   17.1900000   20.0600000  
C 19.1490000   17.7030000   20.9470000  
C 17.8660000   18.2710000   20.6300000  
C 17.5800000   18.1750000   19.2380000  
C 18.5080000   17.6690000   18.2730000  
C 21.1360000   16.6240000   20.9290000  
C 20.8030000   16.8740000   22.2600000  
N 19.7150000   17.6580000   22.2580000  
O 22.5930000   15.7160000   23.3520000  
C 21.5480000   16.5960000   23.4720000  
O 21.2280000   17.0200000   24.5560000  
O 16.2910000   18.4600000   18.8020000  
O 18.1410000   17.6900000   16.9540000  
H 22.0830000   16.0850000   20.6660000  
H 22.4590000   15.2730000   22.5230000  
H 19.2240000   18.0020000   23.0910000  
H 15.6930000   18.4530000   19.5960000  
H 17.2390000   18.0050000   16.8870000  
C 16.9360000   18.6980000   21.7330000  
C 17.3530000   19.7750000   22.6210000  
C 16.5540000   20.0760000   23.7290000  
C 15.1890000   19.6220000   23.9680000  
C 14.7990000   18.6910000   23.0130000  
C 15.6630000   18.2050000   21.9680000  
C 18.4690000   20.6040000   22.7220000  
C 18.3410000   21.4090000   23.8450000  
N 17.1450000   21.0160000   24.5280000  
O 20.3560000   22.6400000   23.6090000  
C 19.3160000   22.3870000   24.4010000  
O 19.1820000   22.9860000   25.4830000  
O 13.4900000   18.3940000   23.0690000  
O 15.2770000   17.1170000   21.2680000  
H 19.3050000   20.5550000   22.0520000  
H 20.2320000   22.1520000   22.7620000  
H 16.8360000   21.4090000   25.3690000  
H 13.0800000   19.1270000   23.6790000  
H 14.5370000   16.6980000   21.7920000  
C 14.3760000   20.0270000   25.1420000  
C 13.9680000   21.3720000   25.3210000  
C 13.2250000   21.7720000   26.3970000  
C 12.8160000   20.8820000   27.4290000  
C 13.1690000   19.5440000   27.3500000  
C 13.8430000   19.0560000   26.1850000  
C 14.1070000   22.5870000   24.4890000  
C 13.2540000   23.5930000   24.9510000  
N 12.7780000   23.0830000   26.2010000  
O 13.4030000   25.1490000   23.0370000  
C 12.9160000   24.9250000   24.3590000  
O 12.1850000   25.6970000   24.9790000  
O 12.8430000   18.6490000   28.3560000  
O 14.0410000   17.7120000   26.0390000  
H 14.6420000   22.6640000   23.6040000  
H 14.0840000   24.4470000   22.9720000  
H 12.2500000   23.6080000   26.9050000  
H 12.2300000   19.1080000   28.9930000  
H 13.7250000   17.3500000   26.8980000  
H 12.3390000   21.2900000   28.2790000  
