78
011 
C 14.6740000   23.8780000   25.5530000  
C 13.3520000   24.1060000   25.1010000  
C 12.7030000   23.0260000   24.4930000  
C 13.4010000   21.8850000   24.2290000  
C 14.7560000   21.6740000   24.5230000  
C 15.3840000   22.7540000   25.1640000  
C 11.3350000   22.8120000   24.0840000  
C 11.2470000   21.4520000   23.6900000  
N 12.5420000   20.9360000   23.6740000  
O  8.9510000   21.4430000   23.1280000  
C 10.1030000   20.7050000   23.1850000  
O 10.0540000   19.5330000   22.8460000  
O 16.7310000   22.7280000   25.4290000  
O 15.3200000   24.9680000   26.1130000  
H 12.9260000   25.0930000   25.2460000  
H 10.5060000   23.5230000   24.0940000  
H  9.3420000   22.2960000   23.4370000  
H 12.8040000   19.9240000   23.4770000  
H 17.0080000   21.8090000   25.1950000  
H 16.2670000   24.8130000   26.1990000  
C 15.5100000   20.5640000   24.0020000  
C 15.7370000   20.4660000   22.6260000  
C 16.5430000   19.5760000   22.1180000  
C 17.2260000   18.5830000   22.7830000  
C 17.1710000   18.6800000   24.2080000  
C 16.2730000   19.6340000   24.7920000  
C 15.1850000   21.2770000   21.4850000  
C 15.6730000   20.7710000   20.3200000  
N 16.5350000   19.7240000   20.7230000  
O 14.5830000   22.2030000   18.7520000  
C 15.5570000   21.2770000   18.9030000  
O 16.2550000   20.9000000   17.9630000  
O 17.9270000   17.7940000   24.9750000  
O 16.1400000   19.6260000   26.2000000  
H 14.8200000   22.3060000   21.5790000  
H 14.0870000   22.3810000   19.5920000  
H 17.2570000   19.2760000   20.1270000  
H 18.6340000   17.4630000   24.3760000  
H 16.7200000   19.0180000   26.5630000  
C 18.1250000   17.6040000   22.0980000  
C 19.1330000   18.0490000   21.1920000  
C 19.9150000   17.1760000   20.4900000  
C 19.8380000   15.7530000   20.6360000  
C 18.8410000   15.2770000   21.5410000  
C 18.0110000   16.1780000   22.1910000  
C 19.6060000   19.3680000   20.7300000  
C 20.7870000   19.1140000   20.0020000  
N 20.8820000   17.7270000   19.7920000  
O 21.4240000   21.3470000   19.7310000  
C 21.8470000   20.0920000   19.5540000  
O 22.8960000   19.7980000   19.0720000  
O 18.6340000   13.9470000   21.6950000  
O 16.9630000   15.7220000   22.9480000  
H 19.2130000   20.3670000   21.0180000  
H 20.5530000   21.3110000   20.2130000  
H 21.6490000   17.2480000   19.3450000  
H 19.4400000   13.4690000   21.5260000  
H 17.1460000   14.7580000   23.1700000  
C 20.7970000   14.8050000   19.8420000  
C 22.1010000   14.4120000   20.2920000  
C 22.9350000   13.6310000   19.4870000  
C 22.5710000   13.2530000   18.2130000  
C 21.3270000   13.6060000   17.7130000  
C 20.4520000   14.3730000   18.5240000  
C 22.8510000   14.6910000   21.4870000  
C 23.9700000   13.9300000   21.5040000  
N 24.0940000   13.3440000   20.1930000  
O 24.4110000   14.3430000   23.8120000  
C 24.7940000   13.6660000   22.6640000  
O 25.7530000   12.9620000   22.5650000  
O 20.9920000   12.9820000   16.5360000  
O 19.2060000   14.7090000   18.0900000  
H 22.3050000   15.2800000   22.2640000  
H 23.6040000   14.8060000   23.6020000  
H 24.8380000   12.7090000   19.8760000  
H 21.6220000   12.2840000   16.3110000  
H 18.9870000   14.3380000   17.1950000  
H 23.2790000   12.6010000   17.7390000  
