78
011 
C 15.2330000   21.0420000   15.5380000  
C 15.0370000   20.0560000   14.5590000  
C 15.2610000   18.6970000   14.8790000  
C 15.6720000   18.4140000   16.1260000  
C 15.7370000   19.2990000   17.2340000  
C 15.5070000   20.6530000   16.8520000  
C 15.3580000   17.5110000   14.0710000  
C 15.8990000   16.5490000   14.9330000  
N 16.0260000   17.0840000   16.2080000  
O 16.1670000   14.6880000   13.3040000  
C 16.3830000   15.1440000   14.6140000  
O 16.8970000   14.4740000   15.4530000  
O 15.6860000   21.6580000   17.7450000  
O 15.2580000   22.3230000   15.1070000  
H 14.7710000   20.2810000   13.5690000  
H 15.2330000   17.3970000   13.0130000  
H 15.7650000   15.4990000   12.9150000  
H 16.1780000   16.5830000   17.0320000  
H 15.6420000   21.2580000   18.6400000  
H 15.4260000   22.8670000   15.8810000  
C 16.1520000   18.8480000   18.5810000  
C 17.4350000   18.2580000   18.8250000  
C 17.8640000   18.0660000   20.1150000  
C 17.2250000   18.5600000   21.3170000  
C 15.9520000   19.1260000   21.0850000  
C 15.4190000   19.2000000   19.7340000  
C 18.5150000   17.9030000   17.9610000  
C 19.6210000   17.5750000   18.7710000  
N 19.1450000   17.5870000   20.0630000  
O 21.0350000   17.0510000   16.8940000  
C 20.9880000   17.2130000   18.2640000  
O 21.8820000   16.8690000   19.0420000  
O 15.1920000   19.5690000   22.0470000  
O 14.2130000   19.7070000   19.5770000  
H 18.4750000   18.0400000   16.8370000  
H 20.1240000   17.2910000   16.6430000  
H 19.6710000   17.4600000   20.9230000  
H 15.3980000   19.1920000   22.9090000  
H 13.7950000   19.6980000   20.4670000  
C 17.7510000   18.3070000   22.7090000  
C 18.8560000   18.9530000   23.2460000  
C 19.4130000   18.6350000   24.4780000  
C 18.8130000   17.7020000   25.3820000  
C 17.6400000   17.0210000   24.8630000  
C 17.0870000   17.3790000   23.5500000  
C 19.7100000   19.9900000   22.6750000  
C 20.6340000   20.2810000   23.7170000  
N 20.4050000   19.4760000   24.8300000  
O 21.7600000   22.0270000   22.6340000  
C 21.6770000   21.3790000   23.7760000  
O 22.2920000   21.7420000   24.7860000  
O 17.0600000   16.0680000   25.5790000  
O 16.0830000   16.5720000   22.9940000  
H 19.6000000   20.5750000   21.7510000  
H 21.2070000   21.4690000   22.0880000  
H 20.9070000   19.3770000   25.7580000  
H 17.5930000   16.0420000   26.3900000  
H 15.6810000   15.9970000   23.6650000  
C 19.2700000   17.5500000   26.8130000  
C 18.4690000   18.0600000   27.7920000  
C 18.8740000   18.0490000   29.0880000  
C 20.2040000   17.6950000   29.5310000  
C 21.0450000   17.1270000   28.5400000  
C 20.5930000   17.2120000   27.1930000  
C 17.2130000   18.6990000   27.7570000  
C 16.8860000   19.0340000   29.0260000  
N 17.8270000   18.4680000   29.8890000  
O 14.9280000   20.0630000   28.2550000  
C 15.6650000   19.8120000   29.3810000  
O 15.2370000   20.0130000   30.4750000  
O 22.3200000   16.8230000   28.8890000  
O 21.4820000   16.8830000   26.2090000  
H 16.7310000   19.1320000   26.9140000  
H 15.2880000   19.4480000   27.6190000  
H 17.8270000   18.6920000   30.8630000  
H 22.1480000   16.4990000   29.7570000  
H 22.3870000   16.7630000   26.5750000  
H 20.4160000   17.9220000   30.6030000  
