78
011 
C 24.9040000   16.0950000   20.7490000  
C 24.9660000   14.7430000   21.2110000  
C 23.7450000   14.0790000   21.5720000  
C 22.6150000   14.7620000   21.5550000  
C 22.4410000   16.1260000   21.1480000  
C 23.6570000   16.7700000   20.8100000  
C 23.4610000   12.7650000   22.0710000  
C 22.1020000   12.7590000   22.3880000  
N 21.5640000   14.0500000   22.0740000  
O 22.2310000   10.5430000   23.2500000  
C 21.4160000   11.5600000   23.0330000  
O 20.2650000   11.6050000   23.3670000  
O 23.6390000   18.1280000   20.4240000  
O 26.1360000   16.6410000   20.4720000  
H 25.9430000   14.2910000   21.2630000  
H 24.1100000   11.9120000   22.1290000  
H 23.0440000   10.8820000   22.7920000  
H 20.6380000   14.4360000   22.2390000  
H 22.8620000   18.5840000   20.9220000  
H 26.0520000   17.5670000   20.4400000  
C 21.1050000   16.8380000   21.1430000  
C 20.5960000   17.3330000   22.3700000  
C 19.2840000   17.7370000   22.5130000  
C 18.3600000   17.8280000   21.4530000  
C 18.9190000   17.4610000   20.1740000  
C 20.2480000   16.9660000   19.9680000  
C 21.2170000   17.4840000   23.6660000  
C 20.2650000   18.0780000   24.4980000  
N 19.0610000   18.2330000   23.7810000  
O 21.6450000   17.7750000   26.4910000  
C 20.4220000   17.9610000   25.9690000  
O 19.4840000   18.0630000   26.7260000  
O 18.0990000   17.5980000   19.1040000  
O 20.6700000   16.5690000   18.7520000  
H 22.1690000   17.0140000   23.9240000  
H 22.2740000   18.0130000   25.7740000  
H 18.2300000   18.7350000   24.0620000  
H 17.2390000   17.8260000   19.4880000  
H 19.9570000   16.4540000   18.1830000  
C 17.0310000   18.3690000   21.6230000  
C 16.9150000   19.7810000   21.8330000  
C 15.7020000   20.3660000   22.0860000  
C 14.4680000   19.7230000   21.8730000  
C 14.5290000   18.3220000   21.6230000  
C 15.8130000   17.6710000   21.4690000  
C 17.8920000   20.8290000   22.0210000  
C 17.1880000   21.9290000   22.4080000  
N 15.8220000   21.6530000   22.4370000  
O 19.0910000   23.3340000   22.6180000  
C 17.7380000   23.2880000   22.7230000  
O 17.0270000   24.1680000   23.1620000  
O 13.2760000   17.7180000   21.5240000  
O 15.7660000   16.3750000   21.1660000  
H 18.9220000   20.6130000   21.8110000  
H 19.3490000   22.4180000   22.2930000  
H 15.0010000   22.2950000   22.5490000  
H 12.6550000   18.3320000   21.9120000  
H 14.8070000   16.1170000   21.1880000  
C 13.1410000   20.3730000   22.0220000  
C 12.7060000   21.2130000   21.0380000  
C 11.5690000   21.9330000   21.1780000  
C 10.7690000   21.8560000   22.3330000  
C 11.1290000   20.9520000   23.3840000  
C 12.3340000   20.1930000   23.1670000  
C 13.2270000   21.4900000   19.7470000  
C 12.4240000   22.4930000   19.1990000  
N 11.3760000   22.7560000   20.1020000  
O 13.8590000   23.0360000   17.3440000  
C 12.6520000   23.2630000   17.9290000  
O 11.8400000   23.9580000   17.3840000  
O 10.4180000   20.9230000   24.5800000  
O 12.7570000   19.3440000   24.2080000  
H 14.0800000   21.0330000   19.2580000  
H 14.2000000   22.3640000   17.9450000  
H 10.7100000   23.4750000   19.9590000  
H  9.5450000   21.3470000   24.5510000  
H 12.4810000   19.6030000   25.0850000  
H  9.9290000   22.4850000   22.3510000  
