78
011 
C 12.7270000   23.6500000   20.8690000  
C 11.7070000   23.2420000   20.0360000  
C 11.7600000   21.9420000   19.5180000  
C 12.7540000   21.1360000   19.8580000  
C 13.7380000   21.4500000   20.7750000  
C 13.7680000   22.7720000   21.2620000  
C 10.9840000   21.2290000   18.5410000  
C 11.5700000   19.9500000   18.3940000  
N 12.7410000   19.9680000   19.1450000  
O  9.9170000   18.9940000   16.9920000  
C 11.0980000   18.7870000   17.5840000  
O 11.6530000   17.7000000   17.4410000  
O 14.7210000   23.1930000   22.1060000  
O 12.8040000   24.9700000   21.3210000  
H 10.8770000   23.8860000   19.7480000  
H 10.0680000   21.5420000   18.1340000  
H  9.4940000   19.7790000   17.3740000  
H 13.4580000   19.1840000   19.1590000  
H 15.2190000   22.4040000   22.4870000  
H 13.6860000   25.0390000   21.7360000  
C 14.8100000   20.4400000   21.0910000  
C 15.7110000   20.0420000   20.1050000  
C 16.7080000   19.2020000   20.5080000  
C 16.9620000   18.7780000   21.8410000  
C 15.9920000   19.1820000   22.8000000  
C 14.9240000   19.9890000   22.4720000  
C 15.9950000   20.4930000   18.7580000  
C 17.0990000   19.7150000   18.4210000  
N 17.5480000   18.9500000   19.4780000  
O 17.4210000   20.8290000   16.3330000  
C 17.8890000   19.9040000   17.1580000  
O 18.8850000   19.2380000   16.8610000  
O 16.2330000   18.8780000   24.1010000  
O 14.1570000   20.6210000   23.3890000  
H 15.4470000   21.2490000   18.1690000  
H 16.6120000   21.0910000   16.7760000  
H 18.3560000   18.4340000   19.4450000  
H 16.8910000   18.1430000   23.9930000  
H 13.2460000   20.7930000   23.1040000  
C 18.0570000   17.8110000   22.2360000  
C 19.4360000   18.0630000   22.1210000  
C 20.3080000   17.1800000   22.6110000  
C 20.0710000   15.9490000   23.2770000  
C 18.6700000   15.6350000   23.3640000  
C 17.7030000   16.5710000   22.8630000  
C 20.1710000   19.1970000   21.6590000  
C 21.4930000   18.9810000   21.9820000  
N 21.6010000   17.6140000   22.4240000  
O 22.0360000   21.2910000   21.4920000  
C 22.5740000   20.0220000   21.7650000  
O 23.7940000   19.8670000   21.8380000  
O 18.2580000   14.5340000   24.0270000  
O 16.4120000   16.2390000   22.8970000  
H 19.7040000   20.1730000   21.2800000  
H 21.0460000   21.1550000   21.3980000  
H 22.4120000   17.0960000   22.7910000  
H 19.0600000   14.0580000   24.3820000  
H 16.4130000   15.3870000   23.2440000  
C 21.1320000   14.9400000   23.7760000  
C 22.0520000   15.3420000   24.7720000  
C 22.9760000   14.4220000   25.2150000  
C 23.1360000   13.1390000   24.7080000  
C 22.2390000   12.7800000   23.6930000  
C 21.2710000   13.6410000   23.2340000  
C 22.1710000   16.5690000   25.4930000  
C 23.3390000   16.4330000   26.3360000  
N 23.8830000   15.1400000   26.0530000  
O 23.0590000   18.4440000   27.6650000  
C 23.8590000   17.3640000   27.4090000  
O 24.8810000   17.1320000   28.0400000  
O 22.4530000   11.5620000   22.9870000  
O 20.4940000   13.2570000   22.1620000  
H 21.4870000   17.4390000   25.4590000  
H 22.3350000   18.2740000   27.0270000  
H 24.7490000   14.7920000   26.3970000  
H 22.9570000   10.9150000   23.4290000  
H 20.9940000   12.5230000   21.7460000  
H 24.0040000   12.5360000   25.0430000  
