78
011 
C 24.5360000   16.2280000   19.5280000  
C 24.7420000   14.9990000   20.1970000  
C 23.7390000   14.1820000   20.6680000  
C 22.4730000   14.7650000   20.7600000  
C 22.1870000   16.1150000   20.3410000  
C 23.2550000   16.8030000   19.6150000  
C 23.6140000   12.8720000   21.2060000  
C 22.3460000   12.7540000   21.6680000  
N 21.6470000   13.9240000   21.3840000  
O 22.7140000   10.5480000   22.5380000  
C 21.8370000   11.5780000   22.3820000  
O 20.7080000   11.5790000   22.8580000  
O 23.1050000   18.0800000   19.1200000  
O 25.5670000   16.7940000   18.9530000  
H 25.7890000   14.6040000   20.1700000  
H 24.3640000   12.1120000   21.2210000  
H 23.5240000   10.8350000   22.0350000  
H 20.6730000   14.0900000   21.7180000  
H 22.1330000   18.1310000   19.1600000  
H 25.3350000   17.6930000   18.7930000  
C 20.7960000   16.5910000   20.6100000  
C 20.3240000   16.7900000   21.9250000  
C 19.1050000   17.3750000   22.2540000  
C 18.1930000   17.7100000   21.2610000  
C 18.6230000   17.6160000   19.9090000  
C 19.9030000   17.1150000   19.5920000  
C 20.9610000   16.6940000   23.2410000  
C 20.1690000   17.2910000   24.1850000  
N 18.9550000   17.6020000   23.5900000  
O 21.8650000   17.1500000   25.8220000  
C 20.6240000   17.5830000   25.5370000  
O 19.9720000   18.1340000   26.3890000  
O 17.8060000   18.0530000   18.9010000  
O 20.3880000   16.9570000   18.3120000  
H 21.9710000   16.3470000   23.4360000  
H 22.0630000   16.6700000   25.0050000  
H 18.1270000   17.9840000   23.9870000  
H 17.2980000   18.7670000   19.2780000  
H 19.9520000   17.5260000   17.7120000  
C 16.9200000   18.3110000   21.6100000  
C 16.9250000   19.6220000   22.1760000  
C 15.7760000   20.2150000   22.5090000  
C 14.4760000   19.6110000   22.4320000  
C 14.4410000   18.3250000   21.8880000  
C 15.6400000   17.7090000   21.5120000  
C 17.9100000   20.6480000   22.3550000  
C 17.3070000   21.7790000   22.8640000  
N 15.9230000   21.4650000   22.9570000  
O 19.1940000   23.0670000   23.2680000  
C 17.8390000   23.0820000   23.2130000  
O 17.2010000   24.0850000   23.4910000  
O 13.2280000   17.6900000   21.7280000  
O 15.5490000   16.5010000   20.9080000  
H 18.9200000   20.5370000   22.1830000  
H 19.3080000   22.1240000   23.1820000  
H 15.1540000   22.0780000   23.2820000  
H 12.6780000   18.3160000   22.1550000  
H 14.5970000   16.3120000   21.0620000  
C 13.2280000   20.3940000   22.7370000  
C 12.7660000   21.4220000   21.9110000  
C 11.7400000   22.2550000   22.2990000  
C 10.9350000   21.9500000   23.4440000  
C 11.4560000   21.0750000   24.3450000  
C 12.6470000   20.3920000   24.0280000  
C 13.2910000   21.9450000   20.6530000  
C 12.5020000   22.9710000   20.2640000  
N 11.4940000   23.1610000   21.2480000  
O 13.6700000   23.3030000   18.2250000  
C 12.6390000   23.6870000   19.0090000  
O 11.8650000   24.6130000   18.7030000  
O 10.8390000   20.7540000   25.5540000  
O 13.2050000   19.6610000   25.0310000  
H 14.1770000   21.5090000   20.1540000  
H 14.2670000   22.7060000   18.7020000  
H 10.7390000   23.8040000   21.2480000  
H  9.8870000   20.9710000   25.3870000  
H 12.7880000   19.9360000   25.9340000  
H  9.9600000   22.4530000   23.5230000  
