78
011 
C 13.1230000   24.4420000   22.3710000  
C 11.8050000   23.8810000   22.1840000  
C 11.6740000   22.5150000   22.0380000  
C 12.7720000   21.7040000   22.0700000  
C 14.0710000   22.1640000   22.2340000  
C 14.2080000   23.5380000   22.3480000  
C 10.5880000   21.6300000   21.6830000  
C 11.1320000   20.3190000   21.5850000  
N 12.5150000   20.4030000   21.8800000  
O  9.2380000   19.1770000   20.7970000  
C 10.4680000   19.0350000   21.2960000  
O 11.0700000   17.9750000   21.5010000  
O 15.5010000   24.0440000   22.4010000  
O 13.3040000   25.7380000   22.4460000  
H 10.9560000   24.5080000   22.1620000  
H  9.5500000   21.8090000   21.3300000  
H  9.1380000   20.1340000   20.5850000  
H 13.1520000   19.6070000   21.9370000  
H 16.0450000   23.3140000   22.5520000  
H 14.2290000   25.8000000   22.7420000  
C 15.3720000   21.3090000   22.0530000  
C 16.0080000   20.9870000   20.8250000  
C 17.0470000   20.1200000   20.7590000  
C 17.6280000   19.4070000   21.8260000  
C 17.0520000   19.7620000   23.0810000  
C 15.9550000   20.6410000   23.1930000  
C 15.7320000   21.4630000   19.5270000  
C 16.6620000   20.9020000   18.7010000  
N 17.4510000   20.0030000   19.4430000  
O 16.0840000   21.8210000   16.5450000  
C 16.9200000   21.0430000   17.2600000  
O 17.7920000   20.4840000   16.6630000  
O 17.6620000   19.2260000   24.2300000  
O 15.3590000   20.7250000   24.4590000  
H 14.8630000   22.0430000   19.2510000  
H 15.4540000   22.1710000   17.1270000  
H 18.2890000   19.4900000   19.2100000  
H 18.2230000   18.5220000   23.9900000  
H 15.8860000   20.2470000   25.1640000  
C 18.6620000   18.3220000   21.6730000  
C 19.8910000   18.4290000   22.4360000  
C 20.8850000   17.5090000   22.3400000  
C 20.7830000   16.2890000   21.6460000  
C 19.5550000   16.1290000   20.9360000  
C 18.5760000   17.1620000   20.8680000  
C 20.3370000   19.3970000   23.3820000  
C 21.6340000   19.0130000   23.8300000  
N 21.8940000   17.7570000   23.2790000  
O 22.0700000   21.0350000   25.0390000  
C 22.5230000   19.7620000   24.7480000  
O 23.5990000   19.2980000   25.1320000  
O 19.3830000   14.9210000   20.2560000  
O 17.4720000   16.9580000   20.0590000  
H 19.7310000   20.2060000   23.6480000  
H 21.1500000   21.0050000   24.7510000  
H 22.7040000   17.2100000   23.3250000  
H 20.1840000   14.4040000   20.5120000  
H 17.3850000   16.0190000   19.9510000  
C 21.8780000   15.3070000   21.6290000  
C 21.6940000   14.0360000   22.1950000  
C 22.6360000   13.0660000   22.2120000  
C 23.9110000   13.3300000   21.7100000  
C 24.1930000   14.5640000   21.1230000  
C 23.1430000   15.5430000   21.0140000  
C 20.5450000   13.5830000   22.9400000  
C 20.8270000   12.2680000   23.3050000  
N 22.1480000   11.9360000   22.9510000  
O 18.6810000   11.9100000   24.2520000  
C 19.8980000   11.3220000   23.9860000  
O 20.2550000   10.2070000   24.3510000  
O 25.4530000   14.7990000   20.6010000  
O 23.3210000   16.7100000   20.2620000  
H 19.6490000   14.1860000   23.0220000  
H 18.8090000   12.7250000   23.8220000  
H 22.6020000   11.0330000   22.8860000  
H 25.9190000   13.9990000   20.6880000  
H 24.2190000   16.8550000   20.0140000  
H 24.7850000   12.6790000   21.7810000  
