78
011 
C 19.9840000   18.5050000   28.7530000  
C 19.0010000   18.8800000   29.7040000  
C 17.7180000   19.2700000   29.1640000  
C 17.4540000   19.0950000   27.8440000  
C 18.4190000   18.8300000   26.8790000  
C 19.7290000   18.4720000   27.3320000  
C 16.5160000   19.5710000   29.7950000  
C 15.5450000   19.5230000   28.7930000  
N 16.1120000   19.2440000   27.5870000  
O 13.7560000   20.0950000   30.2130000  
C 14.0630000   19.6870000   28.9930000  
O 13.2220000   19.2440000   28.2220000  
O 20.7210000   18.1590000   26.5110000  
O 21.2590000   18.2630000   29.2720000  
H 19.3110000   18.9010000   30.7420000  
H 16.3230000   19.7180000   30.8180000  
H 14.6690000   20.2560000   30.6070000  
H 15.6500000   19.0350000   26.6990000  
H 20.4550000   18.3590000   25.5870000  
H 21.8130000   17.7950000   28.5710000  
C 18.0810000   18.7350000   25.4110000  
C 17.5960000   19.7910000   24.6820000  
C 17.3650000   19.6880000   23.2700000  
C 17.5990000   18.4840000   22.5790000  
C 17.9380000   17.3650000   23.3800000  
C 18.0910000   17.4600000   24.7950000  
C 17.3700000   21.1970000   25.0040000  
C 16.9410000   21.7600000   23.8370000  
N 16.9130000   20.8610000   22.7740000  
O 16.5030000   23.9230000   24.8770000  
C 16.5230000   23.2200000   23.7460000  
O 16.2230000   23.7230000   22.7040000  
O 18.1020000   16.0680000   22.8620000  
O 18.3460000   16.3210000   25.5260000  
H 17.4760000   21.7260000   25.9430000  
H 16.6420000   23.2670000   25.5750000  
H 16.4110000   21.0110000   21.9320000  
H 18.1720000   16.1730000   21.9030000  
H 18.5800000   15.5510000   24.9410000  
C 17.4600000   18.4120000   21.0860000  
C 18.5760000   18.7550000   20.2610000  
C 18.4020000   18.3990000   18.9620000  
C 17.2340000   18.0720000   18.2530000  
C 16.1140000   17.7340000   19.1450000  
C 16.2020000   17.9910000   20.5390000  
C 19.9550000   18.8260000   20.5250000  
C 20.5810000   18.7530000   19.2880000  
N 19.6040000   18.6890000   18.2990000  
O 22.7720000   18.6290000   20.1860000  
C 22.0360000   18.4980000   19.0750000  
O 22.5900000   18.2170000   18.0020000  
O 14.9620000   17.3770000   18.6170000  
O 15.2210000   17.7160000   21.3850000  
H 20.4130000   18.8940000   21.5240000  
H 22.2560000   19.2500000   20.7620000  
H 19.7590000   18.7180000   17.3230000  
H 15.0220000   17.0860000   17.6990000  
H 14.3580000   17.5980000   20.8780000  
C 17.2220000   17.9190000   16.7580000  
C 17.9720000   16.9550000   16.0990000  
C 17.9180000   16.8070000   14.7210000  
C 17.1480000   17.5790000   13.9040000  
C 16.3840000   18.5920000   14.5520000  
C 16.4250000   18.7580000   15.9510000  
C 18.8610000   15.9130000   16.6440000  
C 19.2800000   15.1690000   15.5550000  
N 18.6570000   15.6780000   14.3930000  
O 20.4030000   13.5200000   16.7220000  
C 20.1050000   14.0000000   15.4910000  
O 20.4400000   13.4480000   14.4730000  
O 15.5190000   19.4070000   13.9180000  
O 15.5990000   19.7080000   16.5340000  
H 19.1740000   15.8200000   17.6780000  
H 19.9690000   14.0370000   17.3930000  
H 18.7140000   15.2850000   13.4610000  
H 15.2850000   18.9540000   13.0590000  
H 14.9290000   20.0470000   15.9390000  
H 17.1160000   17.4110000   12.8300000  
