78
011 
C 19.5220000   19.1140000   14.5250000  
C 19.3840000   17.8270000   13.9200000  
C 19.0150000   16.8100000   14.8090000  
C 18.7480000   16.9480000   16.1430000  
C 18.9200000   18.2120000   16.7490000  
C 19.3560000   19.3030000   15.9350000  
C 18.7000000   15.3890000   14.5580000  
C 18.2130000   14.8800000   15.7310000  
N 18.2610000   15.8620000   16.7620000  
O 17.6490000   12.7730000   14.8120000  
C 17.7070000   13.4740000   15.9320000  
O 17.3110000   13.0150000   16.9910000  
O 19.6160000   20.4890000   16.5330000  
O 19.7260000   20.1610000   13.7180000  
H 19.5100000   17.6120000   12.8690000  
H 18.7840000   14.7400000   13.6320000  
H 17.9200000   13.4240000   14.1650000  
H 17.8900000   15.7650000   17.7210000  
H 19.3990000   20.4970000   17.4720000  
H 19.7890000   20.9480000   14.2690000  
C 18.5380000   18.2800000   18.1930000  
C 19.1280000   17.4510000   19.1540000  
C 18.7600000   17.4750000   20.4460000  
C 17.8100000   18.3550000   20.9780000  
C 17.1160000   19.1440000   20.0490000  
C 17.4750000   19.1260000   18.6860000  
C 20.1860000   16.4530000   19.1150000  
C 20.4780000   16.0520000   20.4070000  
N 19.4470000   16.5060000   21.2550000  
O 22.3950000   14.7220000   19.9220000  
C 21.5940000   15.2250000   20.9030000  
O 21.7250000   14.9050000   22.0530000  
O 16.1210000   19.9730000   20.5570000  
O 16.6540000   19.7960000   17.7140000  
H 20.7700000   16.0260000   18.2560000  
H 22.1110000   15.1380000   19.1510000  
H 19.4470000   16.4030000   22.2520000  
H 16.2020000   19.9030000   21.5390000  
H 15.7910000   19.9870000   18.1770000  
C 17.3560000   18.3690000   22.3940000  
C 18.0650000   19.1800000   23.2820000  
C 17.7790000   19.2540000   24.6200000  
C 16.6710000   18.6140000   25.1980000  
C 15.9090000   17.7410000   24.3220000  
C 16.2580000   17.6760000   22.9240000  
C 19.1160000   20.1420000   23.0780000  
C 19.4660000   20.6130000   24.3320000  
N 18.5980000   20.0800000   25.2800000  
O 21.1150000   21.8730000   23.4050000  
C 20.5190000   21.6510000   24.5560000  
O 20.8290000   22.2020000   25.5570000  
O 14.8050000   17.1510000   24.7480000  
O 15.4170000   16.9610000   22.1760000  
H 19.7140000   20.2180000   22.1780000  
H 20.7590000   21.2180000   22.8240000  
H 18.6530000   20.2860000   26.2790000  
H 14.4430000   17.6690000   25.5020000  
H 14.7720000   16.5150000   22.8810000  
C 16.3900000   18.8440000   26.6360000  
C 15.9360000   20.1320000   27.1560000  
C 15.9650000   20.4450000   28.5000000  
C 16.3660000   19.5230000   29.4890000  
C 16.7400000   18.2570000   28.9930000  
C 16.7660000   17.8900000   27.6070000  
C 15.2550000   21.2150000   26.5800000  
C 14.6990000   22.0360000   27.5680000  
N 15.2510000   21.6060000   28.7780000  
O 13.7890000   23.6490000   26.0560000  
C 13.9890000   23.2960000   27.4000000  
O 13.8020000   24.1380000   28.3510000  
O 17.0990000   17.2630000   29.9210000  
O 17.3480000   16.7210000   27.2110000  
H 15.1560000   21.3940000   25.5450000  
H 14.3070000   22.9590000   25.5560000  
H 15.3350000   22.1290000   29.6170000  
H 17.0680000   17.6720000   30.8240000  
H 17.4280000   16.1840000   28.0360000  
H 16.1760000   19.7500000   30.4830000  
