78
011 
C 24.0970000   15.8250000   18.3050000  
C 24.4110000   14.6360000   19.0640000  
C 23.5030000   14.1770000   20.0090000  
C 22.3390000   14.8640000   20.2580000  
C 21.8950000   15.9970000   19.5000000  
C 22.8520000   16.4280000   18.4970000  
C 23.4360000   13.0090000   20.8400000  
C 22.2340000   13.0430000   21.4930000  
N 21.5450000   14.1840000   21.1150000  
O 22.5710000   11.0070000   22.8160000  
C 21.7860000   12.1010000   22.5580000  
O 20.7710000   12.3330000   23.1790000  
O 22.6510000   17.5400000   17.7280000  
O 24.9680000   16.1740000   17.2370000  
H 25.3360000   14.0560000   18.8960000  
H 24.3160000   12.3640000   20.9100000  
H 23.3420000   11.2950000   22.2720000  
H 20.6100000   14.4650000   21.3800000  
H 21.6990000   17.6540000   17.7530000  
H 24.7620000   17.1110000   17.0950000  
C 20.5970000   16.6600000   19.8570000  
C 20.3560000   17.0110000   21.1680000  
C 19.1420000   17.4390000   21.6180000  
C 18.0890000   17.7730000   20.7850000  
C 18.2790000   17.5200000   19.3720000  
C 19.5230000   16.9460000   18.9530000  
C 21.2270000   16.9770000   22.3160000  
C 20.4800000   17.4480000   23.3680000  
N 19.1500000   17.6950000   22.9640000  
O 22.2860000   17.5080000   24.8750000  
C 21.0220000   17.9000000   24.6530000  
O 20.3510000   18.6220000   25.4090000  
O 17.2020000   17.7110000   18.4850000  
O 19.6790000   16.6550000   17.6470000  
H 22.3240000   16.8240000   22.3450000  
H 22.6680000   17.0650000   24.1100000  
H 18.4440000   18.2250000   23.4910000  
H 16.4510000   18.1300000   18.9960000  
H 18.8150000   16.8770000   17.1320000  
C 16.8420000   18.3700000   21.4130000  
C 16.9070000   19.5020000   22.2550000  
C 15.7790000   20.0110000   22.8750000  
C 14.4930000   19.6200000   22.6380000  
C 14.4260000   18.4130000   21.8270000  
C 15.5470000   17.7660000   21.2190000  
C 17.9970000   20.3890000   22.5670000  
C 17.4110000   21.4620000   23.2640000  
N 16.0560000   21.2070000   23.4990000  
O 19.4240000   23.0710000   23.2820000  
C 18.1230000   22.7640000   23.6750000  
O 17.5670000   23.6110000   24.3540000  
O 13.3040000   17.7750000   21.4910000  
O 15.3910000   16.5110000   20.7510000  
H 19.0730000   20.4100000   22.2980000  
H 19.6910000   22.3920000   22.7030000  
H 15.3660000   21.8320000   23.9310000  
H 12.5680000   18.2550000   21.8740000  
H 14.4630000   16.3180000   20.9820000  
C 13.3500000   20.2190000   23.2230000  
C 12.9330000   21.4510000   22.8500000  
C 11.8350000   22.0770000   23.4470000  
C 11.0560000   21.4480000   24.3730000  
C 11.4900000   20.2100000   24.8460000  
C 12.5920000   19.5440000   24.2070000  
C 13.5210000   22.4460000   21.9630000  
C 12.7360000   23.6130000   21.9860000  
N 11.6510000   23.3600000   22.9370000  
O 14.1860000   24.7420000   20.5320000  
C 13.1020000   24.9040000   21.3350000  
O 12.6670000   26.0060000   21.6600000  
O 10.8920000   19.6550000   25.9620000  
O 13.0230000   18.2830000   24.4870000  
H 14.4790000   22.2490000   21.4520000  
H 14.2130000   23.8440000   20.2430000  
H 10.9650000   23.9590000   23.2920000  
H 10.6080000   20.3950000   26.5450000  
H 12.5590000   18.0640000   25.3170000  
H 10.1670000   21.7890000   24.8150000  
