78
011 
C 15.1350000   22.4210000   16.0400000  
C 14.0820000   21.7170000   15.3480000  
C 13.7830000   20.4290000   15.9060000  
C 14.4910000   19.8990000   16.9560000  
C 15.4800000   20.5690000   17.6950000  
C 15.7200000   21.9590000   17.2610000  
C 12.7170000   19.4300000   15.6530000  
C 12.9300000   18.3930000   16.5500000  
N 14.0670000   18.6590000   17.3400000  
O 11.0760000   17.0950000   15.7210000  
C 12.1230000   17.1800000   16.5620000  
O 12.3110000   16.2370000   17.2760000  
O 16.6100000   22.7510000   17.9020000  
O 15.6110000   23.5800000   15.5430000  
H 13.6220000   22.0810000   14.4480000  
H 12.0170000   19.5190000   14.7330000  
H 11.0660000   17.9420000   15.2570000  
H 14.2930000   18.2260000   18.1360000  
H 16.8750000   22.4170000   18.7790000  
H 16.4420000   23.8360000   16.0120000  
C 16.0950000   19.9860000   18.9000000  
C 16.8170000   18.8120000   18.7950000  
C 17.3930000   18.1580000   19.8720000  
C 17.4000000   18.6650000   21.2010000  
C 16.7830000   19.9770000   21.2820000  
C 16.0610000   20.5770000   20.1880000  
C 17.1740000   18.0330000   17.6150000  
C 18.1030000   17.0780000   18.1040000  
N 18.1680000   17.1630000   19.5050000  
O 18.7230000   16.2950000   16.0120000  
C 18.9520000   16.1420000   17.3300000  
O 19.7240000   15.3970000   17.8550000  
O 16.8780000   20.6030000   22.4640000  
O 15.2870000   21.6150000   20.4560000  
H 16.7600000   18.1100000   16.5880000  
H 18.4270000   17.1860000   15.9880000  
H 18.9220000   16.7830000   20.0210000  
H 17.4230000   20.0090000   23.0330000  
H 15.2090000   21.8630000   21.3980000  
C 18.1820000   18.0350000   22.3790000  
C 19.1340000   18.7650000   23.1230000  
C 19.6980000   18.2270000   24.2280000  
C 19.3680000   16.9330000   24.6990000  
C 18.5170000   16.1770000   23.8560000  
C 17.8810000   16.7480000   22.7660000  
C 19.9140000   19.9860000   22.9130000  
C 20.8680000   20.0320000   23.9220000  
N 20.6680000   19.0230000   24.8600000  
O 21.9270000   21.9990000   23.1400000  
C 21.9510000   21.0460000   24.0980000  
O 22.6990000   21.1610000   25.0810000  
O 18.2140000   14.8830000   24.2590000  
O 16.9000000   16.0300000   22.1630000  
H 19.6640000   20.6840000   22.1560000  
H 21.3220000   21.7180000   22.4760000  
H 21.1080000   18.8920000   25.7340000  
H 18.8450000   14.6320000   24.8780000  
H 16.9550000   15.1260000   22.4960000  
C 20.1570000   16.4440000   25.8620000  
C 19.9870000   17.0180000   27.1840000  
C 20.7610000   16.6400000   28.2480000  
C 21.7660000   15.6620000   28.0970000  
C 21.8700000   15.0190000   26.8490000  
C 21.0670000   15.3960000   25.7550000  
C 19.1620000   18.0670000   27.6830000  
C 19.4490000   18.2410000   29.0360000  
N 20.5220000   17.3380000   29.3990000  
O 17.6730000   19.7520000   29.4930000  
C 18.7060000   19.0630000   29.9890000  
O 19.0110000   19.2520000   31.1420000  
O 22.8130000   14.1140000   26.6680000  
O 21.3360000   14.7050000   24.5850000  
H 18.3620000   18.6270000   27.0950000  
H 17.6500000   19.2680000   28.7080000  
H 20.7580000   16.9930000   30.3080000  
H 23.4400000   14.0070000   27.4570000  
H 22.0260000   14.0930000   24.7700000  
H 22.4720000   15.4240000   28.8330000  
