78
011 
C 13.6400000   23.6640000   25.5290000  
C 12.4460000   23.7950000   24.7570000  
C 12.3070000   22.9550000   23.5960000  
C 13.3100000   22.0820000   23.3020000  
C 14.5650000   21.9870000   23.9180000  
C 14.7240000   22.8920000   24.9950000  
C 11.1660000   22.5390000   22.8710000  
C 11.4770000   21.4270000   22.1640000  
N 12.8660000   21.1280000   22.3880000  
O  9.1990000   21.2170000   21.2790000  
C 10.4750000   20.6940000   21.3480000  
O 10.7930000   19.6580000   20.7620000  
O 15.9350000   22.8840000   25.6440000  
O 13.8240000   24.4380000   26.6510000  
H 11.6310000   24.3900000   25.0610000  
H 10.2330000   23.1350000   22.8280000  
H  9.2200000   22.0170000   21.7650000  
H 13.2350000   20.1570000   22.3140000  
H 16.3820000   22.1050000   25.2620000  
H 14.7270000   24.1120000   26.9880000  
C 15.5180000   20.9130000   23.5000000  
C 15.7780000   20.7650000   22.1190000  
C 16.6440000   19.7540000   21.7990000  
C 17.2190000   18.8160000   22.6820000  
C 16.9340000   18.9850000   24.0410000  
C 15.9780000   19.9580000   24.4760000  
C 15.4290000   21.4730000   20.9270000  
C 16.1330000   20.8320000   19.8750000  
N 16.7540000   19.6660000   20.4360000  
O 15.9310000   22.6500000   18.3520000  
C 16.4030000   21.4370000   18.4930000  
O 17.0060000   20.7510000   17.6480000  
O 17.5890000   18.1250000   25.0060000  
O 15.5110000   20.1240000   25.7770000  
H 14.8090000   22.3550000   20.9480000  
H 15.5410000   22.9060000   19.2100000  
H 17.2110000   18.9400000   19.9220000  
H 17.6480000   17.2460000   24.5940000  
H 15.5140000   19.2270000   26.1550000  
C 18.0740000   17.7030000   22.1570000  
C 19.2590000   17.9070000   21.4170000  
C 19.9940000   16.8850000   21.0120000  
C 19.6670000   15.5270000   21.0960000  
C 18.5080000   15.3030000   21.8760000  
C 17.7440000   16.3290000   22.4880000  
C 20.0560000   19.0830000   21.0810000  
C 21.2250000   18.6170000   20.4920000  
N 21.1220000   17.2360000   20.2920000  
O 22.5060000   20.6710000   20.5590000  
C 22.4300000   19.3690000   20.1480000  
O 23.3300000   18.8210000   19.5130000  
O 18.1750000   14.0520000   22.0110000  
O 16.6170000   15.9490000   23.2210000  
H 19.6910000   20.0920000   21.3420000  
H 21.6540000   20.8330000   21.0110000  
H 21.7080000   16.6420000   19.6170000  
H 18.8740000   13.5930000   21.5040000  
H 16.5610000   15.0190000   23.3600000  
C 20.6200000   14.4490000   20.6430000  
C 22.0040000   14.4170000   20.9670000  
C 22.8510000   13.4770000   20.4490000  
C 22.4210000   12.5050000   19.5300000  
C 21.0450000   12.5390000   19.1210000  
C 20.1870000   13.5200000   19.6910000  
C 22.7510000   15.2690000   21.8660000  
C 24.0630000   14.8360000   21.8370000  
N 24.1370000   13.7620000   20.9140000  
O 24.7870000   16.2080000   23.5840000  
C 25.1590000   15.2240000   22.7590000  
O 26.2670000   14.7020000   22.8600000  
O 20.5430000   11.6290000   18.1900000  
O 18.8890000   13.3910000   19.2890000  
H 22.3640000   16.0740000   22.5530000  
H 23.9730000   16.4830000   23.1600000  
H 25.0510000   13.2710000   20.6710000  
H 21.2770000   11.1520000   17.7510000  
H 18.7770000   12.6550000   18.6830000  
H 23.1550000   11.6800000   19.3370000  
