78
011 
C 16.7250000   21.1570000   14.9570000  
C 16.0910000   20.1910000   14.1160000  
C 15.6030000   19.0190000   14.8420000  
C 15.6580000   18.8730000   16.1520000  
C 16.3090000   19.7890000   17.0470000  
C 16.8570000   20.9340000   16.3990000  
C 14.9600000   17.8390000   14.3510000  
C 14.7190000   16.9920000   15.4350000  
N 15.1930000   17.6700000   16.5670000  
O 13.8300000   15.0760000   14.2580000  
C 14.2160000   15.5890000   15.4760000  
O 14.0230000   15.0170000   16.5390000  
O 17.3340000   21.9370000   17.2110000  
O 17.2050000   22.2840000   14.3920000  
H 16.0100000   20.2920000   13.0350000  
H 14.7110000   17.6980000   13.2690000  
H 14.0830000   15.7670000   13.6320000  
H 15.3920000   17.3190000   17.4750000  
H 17.0770000   21.6400000   18.0690000  
H 17.8400000   22.7600000   14.9430000  
C 16.5620000   19.5070000   18.4840000  
C 17.5270000   18.5080000   18.7460000  
C 17.8170000   18.1500000   20.0170000  
C 17.2420000   18.8230000   21.1660000  
C 16.2680000   19.7860000   20.9270000  
C 15.9400000   20.1410000   19.6000000  
C 18.3520000   17.6530000   17.9080000  
C 19.1550000   16.9030000   18.7220000  
N 18.8640000   17.2320000   20.0860000  
O 20.2820000   15.7520000   17.0090000  
C 20.2170000   15.9700000   18.3580000  
O 20.9110000   15.3020000   19.1290000  
O 15.6920000   20.4850000   21.9310000  
O 14.8800000   20.9610000   19.3960000  
H 18.4590000   17.6880000   16.8410000  
H 19.5920000   16.3030000   16.6630000  
H 19.4550000   17.0050000   20.9120000  
H 16.2890000   20.3670000   22.7380000  
H 14.5690000   21.2060000   20.2720000  
C 17.6220000   18.4500000   22.5130000  
C 18.6030000   19.0770000   23.3010000  
C 18.9600000   18.6720000   24.5950000  
C 18.4550000   17.5900000   25.2420000  
C 17.4100000   16.8990000   24.4960000  
C 16.9560000   17.3140000   23.1940000  
C 19.4520000   20.2220000   23.0370000  
C 20.2380000   20.4080000   24.1720000  
N 19.8990000   19.5130000   25.1510000  
O 21.4310000   22.2900000   23.3350000  
C 21.2960000   21.3910000   24.3170000  
O 22.0240000   21.4420000   25.3200000  
O 16.7150000   15.9390000   25.1020000  
O 15.8480000   16.6990000   22.6590000  
H 19.3470000   20.9620000   22.2840000  
H 20.8190000   22.0680000   22.6440000  
H 20.2960000   19.4840000   26.1270000  
H 17.1840000   15.6210000   25.9630000  
H 15.7270000   15.7960000   23.0790000  
C 19.0270000   17.1440000   26.5630000  
C 18.7770000   17.9130000   27.6910000  
C 19.2680000   17.5360000   28.9240000  
C 19.9770000   16.3380000   29.1160000  
C 20.0910000   15.4540000   28.0520000  
C 19.6520000   15.8460000   26.7720000  
C 18.1360000   19.2340000   27.8200000  
C 18.3550000   19.6450000   29.1530000  
N 18.9620000   18.5680000   29.8510000  
O 17.4550000   21.8900000   28.8180000  
C 18.0460000   21.0520000   29.6830000  
O 18.3040000   21.2340000   30.8680000  
O 20.7520000   14.2260000   28.1570000  
O 19.8930000   14.9840000   25.7000000  
H 17.7200000   19.8590000   27.1440000  
H 17.5700000   21.3710000   28.0720000  
H 19.2700000   18.5790000   30.8240000  
H 21.6860000   14.3080000   27.7350000  
H 20.2910000   14.1490000   25.9770000  
H 20.4290000   16.1530000   30.0650000  
