78
011 
C 13.2380000   24.1110000   21.6820000  
C 12.4510000   24.0640000   20.5380000  
C 12.2350000   22.7970000   19.9980000  
C 12.8300000   21.6700000   20.4640000  
C 13.7740000   21.6510000   21.5170000  
C 13.9090000   22.9320000   22.1240000  
C 11.5500000   22.3450000   18.8150000  
C 11.8590000   20.9990000   18.6060000  
N 12.6470000   20.5680000   19.6470000  
O 10.8320000   20.9920000   16.4430000  
C 11.5010000   20.2670000   17.3690000  
O 11.7520000   19.0930000   17.1690000  
O 14.7990000   23.0710000   23.1260000  
O 13.4830000   25.2840000   22.4340000  
H 11.9380000   24.9920000   20.1350000  
H 11.0170000   23.0490000   18.1060000  
H 10.5820000   21.8410000   16.9580000  
H 12.9920000   19.6070000   19.8430000  
H 14.9190000   22.1780000   23.4890000  
H 13.8050000   25.1700000   23.3890000  
C 14.7160000   20.4830000   21.7420000  
C 15.6390000   20.1480000   20.7010000  
C 16.6740000   19.3310000   20.9490000  
C 16.8130000   18.6080000   22.1900000  
C 15.8470000   18.9520000   23.2540000  
C 14.8020000   19.8380000   22.9630000  
C 15.7990000   20.5180000   19.2910000  
C 16.9570000   19.8600000   18.7620000  
N 17.4040000   19.0610000   19.8390000  
O 16.9700000   20.8230000   16.5390000  
C 17.5200000   20.0290000   17.4170000  
O 18.4890000   19.3940000   16.9990000  
O 15.9170000   18.4410000   24.4370000  
O 13.8590000   20.0850000   24.0150000  
H 15.2240000   21.2390000   18.7020000  
H 16.2530000   21.3490000   16.9860000  
H 18.0440000   18.2500000   19.7810000  
H 16.3110000   17.5510000   24.2070000  
H 14.0720000   19.3850000   24.6770000  
C 17.8930000   17.5620000   22.4120000  
C 19.2780000   17.7890000   22.2190000  
C 20.1980000   16.8150000   22.3760000  
C 19.9610000   15.5710000   22.9350000  
C 18.5750000   15.3050000   23.2080000  
C 17.5670000   16.2380000   22.8380000  
C 20.0570000   18.9860000   21.9740000  
C 21.4180000   18.6620000   21.8240000  
N 21.4840000   17.2780000   22.1930000  
O 22.1880000   20.7100000   21.0080000  
C 22.5360000   19.4420000   21.3560000  
O 23.6120000   19.0650000   21.0570000  
O 18.2430000   14.0410000   23.6220000  
O 16.2540000   15.8630000   22.8500000  
H 19.4650000   19.8870000   21.9350000  
H 21.2530000   20.8050000   21.3230000  
H 22.3420000   16.7090000   22.1720000  
H 19.0800000   13.5190000   23.7440000  
H 16.0960000   14.9920000   23.2160000  
C 21.0440000   14.6180000   23.2430000  
C 21.8710000   14.8280000   24.3700000  
C 22.9280000   14.0330000   24.6630000  
C 23.2220000   12.9910000   23.7860000  
C 22.4280000   12.7690000   22.6400000  
C 21.3340000   13.5920000   22.3360000  
C 22.0650000   15.9980000   25.1960000  
C 23.2280000   15.8170000   25.9850000  
N 23.6320000   14.5370000   25.7280000  
O 22.9500000   18.0220000   27.0340000  
C 23.6340000   16.8240000   27.0180000  
O 24.5840000   16.6480000   27.7520000  
O 22.7840000   11.7170000   21.8690000  
O 20.5330000   13.3480000   21.2590000  
H 21.4570000   16.9170000   25.2210000  
H 22.1890000   17.8180000   26.5120000  
H 24.3100000   13.9350000   26.2110000  
H 23.5420000   11.2170000   22.2990000  
H 21.0480000   12.8220000   20.6000000  
H 23.9830000   12.2530000   24.0370000  
