78
011 
C 20.6740000   20.0040000   28.5050000  
C 19.8130000   19.4160000   29.5010000  
C 18.6980000   18.7430000   29.1110000  
C 18.4930000   18.4670000   27.8070000  
C 19.3210000   19.0110000   26.7790000  
C 20.3940000   19.8560000   27.1640000  
C 17.6410000   18.1560000   29.8630000  
C 16.8150000   17.4750000   28.9150000  
N 17.3760000   17.7050000   27.6730000  
O 15.2520000   17.0090000   30.5910000  
C 15.6440000   16.6840000   29.3160000  
O 15.0990000   15.8690000   28.5820000  
O 21.1040000   20.4540000   26.1840000  
O 21.6730000   20.9030000   28.8610000  
H 19.9390000   19.6930000   30.4830000  
H 17.4460000   18.2430000   30.9570000  
H 15.9580000   17.6520000   30.8470000  
H 17.0930000   17.3230000   26.8040000  
H 20.7430000   20.1440000   25.3880000  
H 22.0840000   21.0800000   28.0090000  
C 18.9640000   18.8400000   25.3380000  
C 17.6720000   19.2310000   24.7720000  
C 17.4280000   19.0390000   23.4620000  
C 18.3400000   18.4840000   22.5030000  
C 19.5990000   18.1990000   23.1230000  
C 19.9230000   18.3430000   24.4510000  
C 16.5260000   19.8560000   25.3800000  
C 15.6050000   20.0760000   24.3630000  
N 16.1660000   19.4980000   23.2110000  
O 13.9810000   21.2210000   25.6920000  
C 14.3070000   20.7260000   24.4710000  
O 13.6480000   20.9140000   23.4550000  
O 20.3860000   17.3440000   22.3150000  
O 21.0800000   17.8220000   24.9750000  
H 16.4360000   20.1350000   26.4130000  
H 14.7160000   20.9440000   26.2470000  
H 15.7530000   19.3730000   22.2350000  
H 20.1380000   17.4520000   21.3690000  
H 21.5040000   17.3740000   24.2630000  
C 17.9750000   18.2760000   21.1100000  
C 18.3640000   19.2160000   20.1890000  
C 17.9340000   19.0970000   18.9030000  
C 17.2270000   17.9960000   18.3220000  
C 16.9050000   16.9350000   19.2380000  
C 17.2910000   17.1020000   20.5980000  
C 19.0410000   20.5510000   20.2510000  
C 18.7880000   21.1380000   18.9950000  
N 18.2170000   20.1890000   18.1550000  
O 19.9940000   23.1910000   19.4670000  
C 19.2710000   22.5010000   18.5700000  
O 19.0520000   23.0100000   17.4980000  
O 16.2460000   15.8250000   18.9350000  
O 16.9940000   16.1500000   21.5190000  
H 19.4630000   21.0710000   21.1130000  
H 20.1110000   22.5030000   20.1480000  
H 18.1020000   20.2920000   17.1270000  
H 16.2950000   15.7130000   17.9560000  
H 17.1970000   16.4960000   22.4590000  
C 16.8870000   17.8190000   16.8740000  
C 17.5830000   16.9180000   16.0580000  
C 17.1220000   16.5250000   14.8470000  
C 16.1340000   17.2930000   14.1950000  
C 15.4290000   18.2870000   14.9180000  
C 15.7940000   18.5120000   16.2820000  
C 18.7450000   16.1140000   16.3380000  
C 19.0800000   15.4080000   15.1780000  
N 17.9970000   15.5270000   14.2510000  
O 20.8900000   14.3300000   16.2700000  
C 20.1930000   14.4490000   15.1100000  
O 20.5940000   13.9000000   14.0940000  
O 14.3340000   19.0180000   14.4180000  
O 15.1450000   19.5350000   16.8890000  
H 19.2750000   16.1780000   17.2720000  
H 20.3600000   14.7230000   16.9810000  
H 17.8480000   15.0570000   13.3900000  
H 14.0630000   18.6710000   13.5510000  
H 14.3130000   19.6470000   16.4380000  
H 15.9370000   17.0850000   13.1730000  
