78
011 
C 24.1250000   14.2050000   23.2490000  
C 24.2230000   14.0970000   24.6630000  
C 23.2360000   14.7080000   25.4390000  
C 22.1150000   15.1940000   24.7930000  
C 21.9440000   15.3580000   23.4040000  
C 23.0030000   14.8140000   22.6050000  
C 22.9620000   14.7110000   26.8570000  
C 21.6220000   15.0630000   26.9400000  
N 21.1540000   15.4580000   25.6560000  
O 21.5570000   14.8830000   29.2680000  
C 20.8530000   15.1540000   28.1740000  
O 19.7660000   15.6490000   28.2180000  
O 22.9890000   14.9570000   21.3000000  
O 25.0540000   13.5220000   22.5150000  
H 25.1340000   13.6150000   25.0840000  
H 23.5720000   14.4850000   27.7400000  
H 22.4190000   14.7260000   28.9560000  
H 20.2240000   15.6800000   25.3370000  
H 22.1820000   15.4930000   21.1310000  
H 24.8890000   13.7140000   21.5270000  
C 20.7740000   16.0600000   22.7590000  
C 20.3960000   17.3780000   23.1650000  
C 19.3340000   17.9940000   22.6880000  
C 18.4910000   17.4600000   21.7190000  
C 18.7530000   16.1580000   21.3190000  
C 19.8580000   15.4650000   21.8090000  
C 20.8700000   18.2800000   24.1470000  
C 20.0400000   19.4120000   24.2510000  
N 19.1230000   19.2660000   23.1620000  
O 21.4530000   20.6410000   25.6200000  
C 20.1840000   20.5520000   25.1610000  
O 19.2730000   21.3840000   25.3270000  
O 17.9490000   15.4910000   20.5620000  
O 20.1250000   14.1490000   21.2930000  
H 21.6540000   18.0490000   24.9290000  
H 21.8010000   19.7600000   25.3320000  
H 18.3420000   19.9050000   22.9270000  
H 17.1720000   16.0670000   20.3280000  
H 19.4670000   14.1510000   20.5510000  
C 17.2130000   18.1600000   21.2590000  
C 17.1430000   19.3250000   20.4340000  
C 15.9620000   20.0310000   20.2640000  
C 14.7010000   19.6000000   20.6700000  
C 14.7350000   18.3700000   21.4270000  
C 15.9390000   17.7220000   21.7530000  
C 18.1380000   20.2100000   19.8550000  
C 17.4920000   21.3520000   19.3440000  
N 16.1070000   21.1770000   19.6120000  
O 19.5830000   22.4910000   18.7770000  
C 18.2050000   22.5350000   18.8360000  
O 17.6100000   23.5540000   18.4940000  
O 13.5520000   17.9280000   21.8670000  
O 15.9530000   16.5910000   22.6030000  
H 19.2270000   20.0410000   19.8140000  
H 19.8190000   21.6190000   18.9010000  
H 15.3520000   21.7540000   19.2580000  
H 12.9350000   18.7040000   21.7580000  
H 15.0140000   16.4330000   22.7580000  
C 13.4710000   20.3860000   20.4050000  
C 13.2250000   20.8120000   19.0730000  
C 12.2000000   21.6880000   18.7440000  
C 11.4160000   22.2770000   19.7380000  
C 11.6120000   21.8510000   21.0990000  
C 12.6710000   20.9620000   21.4530000  
C 13.8490000   20.4790000   17.7580000  
C 13.1320000   21.1280000   16.7700000  
N 12.2040000   21.9910000   17.4340000  
O 14.2740000   20.1160000   14.9720000  
C 13.2690000   20.9640000   15.3090000  
O 12.5470000   21.5890000   14.5390000  
O 10.7840000   22.3690000   22.0810000  
O 12.9710000   20.6590000   22.7410000  
H 14.6260000   19.6470000   17.5810000  
H 14.5700000   19.9040000   15.8670000  
H 11.5770000   22.6070000   17.0350000  
H 10.1280000   23.0460000   21.7190000  
H 12.4050000   21.1050000   23.3510000  
H 10.7880000   23.0300000   19.4470000  
