78
011 
C 13.7540000   22.5890000   17.3540000  
C 13.2370000   21.9000000   16.2640000  
C 13.5150000   20.5480000   16.2370000  
C 14.2670000   19.8930000   17.1620000  
C 14.8790000   20.6270000   18.1440000  
C 14.6870000   22.0230000   18.2720000  
C 13.2350000   19.4520000   15.2610000  
C 13.7700000   18.2690000   15.7380000  
N 14.3690000   18.5850000   16.9390000  
O 12.8980000   16.9680000   13.9400000  
C 13.5480000   16.9060000   15.1470000  
O 14.0260000   15.9340000   15.6110000  
O 15.3590000   22.7540000   19.2290000  
O 13.3140000   23.8370000   17.5680000  
H 12.6500000   22.3510000   15.4810000  
H 12.5060000   19.5500000   14.4820000  
H 12.5950000   17.8640000   14.0170000  
H 14.8610000   17.8600000   17.4430000  
H 15.8850000   22.1200000   19.7680000  
H 13.4190000   24.0150000   18.5370000  
C 15.6350000   19.9080000   19.2340000  
C 16.8520000   19.2260000   19.0090000  
C 17.5400000   18.7300000   20.0500000  
C 17.0730000   18.6940000   21.3730000  
C 15.8780000   19.3880000   21.6750000  
C 15.2030000   19.8860000   20.6000000  
C 17.5940000   18.8210000   17.8160000  
C 18.7550000   18.1780000   18.2960000  
N 18.7330000   18.1340000   19.6980000  
O 19.8680000   18.0940000   16.2250000  
C 19.8990000   17.6830000   17.5090000  
O 20.8160000   17.0260000   17.9550000  
O 15.4080000   19.4880000   22.9640000  
O 14.0430000   20.5000000   20.9210000  
H 17.3730000   19.1710000   16.7770000  
H 19.0760000   18.6620000   16.1430000  
H 19.3280000   17.5440000   20.2410000  
H 16.0530000   18.9260000   23.4740000  
H 13.7650000   20.2120000   21.7950000  
C 17.9520000   17.9900000   22.4370000  
C 19.2020000   18.6120000   22.7910000  
C 19.8810000   18.1030000   23.9080000  
C 19.5780000   16.9660000   24.6480000  
C 18.3760000   16.2780000   24.1970000  
C 17.5980000   16.8440000   23.1940000  
C 19.9240000   19.7270000   22.2790000  
C 21.0370000   19.8580000   23.1390000  
N 20.9590000   18.9100000   24.1920000  
O 22.1540000   21.4650000   21.8540000  
C 22.2180000   20.6330000   22.9390000  
O 23.1950000   20.6720000   23.6500000  
O 17.9450000   15.2010000   24.8670000  
O 16.3510000   16.3150000   22.9640000  
H 19.8150000   20.1610000   21.3710000  
H 21.3070000   21.1360000   21.4830000  
H 21.7940000   18.6770000   24.7590000  
H 18.5060000   15.0660000   25.6230000  
H 16.2710000   15.3550000   23.0000000  
C 20.3980000   16.4360000   25.8000000  
C 20.0420000   16.7400000   27.1420000  
C 20.8860000   16.4130000   28.1920000  
C 22.1140000   15.7190000   27.9830000  
C 22.4770000   15.3520000   26.6610000  
C 21.6030000   15.7330000   25.6170000  
C 18.9550000   17.4920000   27.7640000  
C 19.1750000   17.5090000   29.1480000  
N 20.3400000   16.7970000   29.3860000  
O 17.1670000   18.6680000   29.7420000  
C 18.3000000   18.1370000   30.1920000  
O 18.5350000   18.0530000   31.3820000  
O 23.5530000   14.6130000   26.3340000  
O 21.9870000   15.4740000   24.2980000  
H 18.1240000   18.0710000   27.3030000  
H 17.1010000   18.5270000   28.7740000  
H 20.5560000   16.4030000   30.2210000  
H 24.0890000   14.4340000   27.1120000  
H 22.6320000   14.7900000   24.4530000  
H 22.8060000   15.5250000   28.8220000  
