78
011 
C 20.6930000   18.0660000   14.7430000  
C 20.5010000   16.6920000   14.3560000  
C 19.7620000   15.8870000   15.1930000  
C 19.1750000   16.3230000   16.3040000  
C 19.3210000   17.6360000   16.7820000  
C 20.1150000   18.5060000   16.0010000  
C 19.4810000   14.4530000   15.1040000  
C 18.6340000   14.1510000   16.1610000  
N 18.4750000   15.3130000   16.9020000  
O 18.2930000   11.8380000   15.8250000  
C 17.9730000   12.9240000   16.5680000  
O 17.2010000   12.7090000   17.4980000  
O 20.3060000   19.8030000   16.4300000  
O 21.3960000   18.9270000   14.0110000  
H 20.8890000   16.2060000   13.4580000  
H 19.8980000   13.7820000   14.3220000  
H 18.8720000   12.3070000   15.1810000  
H 17.8660000   15.3530000   17.7180000  
H 19.5480000   19.9980000   16.9340000  
H 21.4600000   19.7570000   14.5450000  
C 18.7060000   18.0130000   18.1280000  
C 19.1920000   17.4160000   19.2800000  
C 18.7860000   17.8660000   20.5150000  
C 17.7850000   18.8640000   20.7790000  
C 17.1800000   19.4350000   19.5720000  
C 17.6940000   19.0230000   18.2820000  
C 20.2600000   16.4320000   19.5120000  
C 20.4380000   16.3670000   20.9170000  
N 19.4300000   17.1890000   21.4990000  
O 22.4550000   15.1260000   20.8980000  
C 21.4810000   15.6010000   21.6440000  
O 21.4730000   15.5480000   22.8750000  
O 16.1990000   20.3740000   19.6130000  
O 17.3370000   19.7410000   17.1540000  
H 20.8630000   16.0450000   18.6820000  
H 22.1320000   14.9310000   20.0440000  
H 19.3040000   17.3410000   22.4930000  
H 15.7900000   20.3120000   20.4820000  
H 16.4620000   20.1340000   17.4710000  
C 17.4020000   19.1510000   22.2070000  
C 18.3050000   19.5590000   23.1790000  
C 17.8940000   19.5930000   24.5480000  
C 16.6660000   19.2220000   25.0890000  
C 15.8060000   18.7440000   24.1230000  
C 16.0900000   18.7540000   22.7020000  
C 19.6750000   20.0940000   23.1780000  
C 19.9510000   20.5810000   24.4650000  
N 18.9000000   20.1480000   25.3120000  
O 22.0550000   21.6960000   23.9810000  
C 21.1720000   21.3370000   24.9360000  
O 21.2590000   21.7090000   26.0610000  
O 14.6280000   18.2580000   24.5150000  
O 15.1320000   18.3060000   21.8960000  
H 20.3510000   20.3250000   22.3420000  
H 21.7720000   21.4440000   23.1180000  
H 18.8890000   20.2650000   26.3250000  
H 14.6120000   18.4950000   25.4580000  
H 14.5110000   17.7280000   22.4740000  
C 16.1790000   19.4570000   26.4920000  
C 15.1410000   20.3650000   26.8250000  
C 14.7330000   20.5550000   28.1130000  
C 15.3610000   19.9070000   29.1650000  
C 16.2940000   18.9080000   28.8840000  
C 16.7620000   18.6820000   27.5800000  
C 14.3410000   21.1850000   25.9860000  
C 13.4130000   21.8700000   26.7780000  
N 13.6670000   21.4850000   28.1560000  
O 12.0180000   22.6810000   25.0600000  
C 12.2770000   22.7030000   26.3540000  
O 11.4910000   23.2400000   27.1400000  
O 16.8040000   18.1960000   29.9550000  
O 17.6420000   17.6820000   27.3290000  
H 14.3510000   21.1230000   24.9010000  
H 12.6170000   22.0300000   24.6440000  
H 13.2410000   21.8220000   28.9910000  
H 16.6530000   18.5910000   30.8530000  
H 18.0320000   17.4580000   28.2080000  
H 14.9870000   20.0410000   30.2290000  
