78
011 
C 12.8730000   23.9180000   20.4940000  
C 11.9590000   23.5040000   19.4960000  
C 12.0820000   22.1900000   18.9380000  
C 13.1370000   21.4510000   19.3550000  
C 14.0240000   21.7610000   20.4320000  
C 13.8970000   23.0480000   20.9510000  
C 11.3580000   21.3210000   18.0090000  
C 12.0130000   20.0770000   18.0410000  
N 13.0620000   20.1620000   18.9520000  
O 10.8970000   19.0500000   16.2260000  
C 11.7560000   18.8220000   17.1900000  
O 12.4080000   17.8220000   17.3020000  
O 14.7420000   23.4320000   22.0190000  
O 12.7190000   25.1190000   21.0160000  
H 11.1000000   24.1300000   19.1090000  
H 10.4630000   21.4910000   17.4190000  
H 10.4710000   19.9570000   16.2320000  
H 13.5940000   19.3740000   19.2720000  
H 14.8860000   22.6710000   22.6290000  
H 13.6570000   25.4070000   21.3120000  
C 15.0980000   20.9000000   21.0000000  
C 16.1370000   20.3500000   20.2300000  
C 16.9510000   19.4470000   20.7970000  
C 16.8960000   18.9630000   22.1140000  
C 15.9450000   19.5830000   22.9760000  
C 14.9950000   20.4570000   22.3920000  
C 16.4870000   20.4340000   18.8390000  
C 17.5850000   19.6080000   18.6850000  
N 17.8630000   18.9880000   19.8880000  
O 17.8670000   19.9150000   16.3700000  
C 18.3530000   19.3130000   17.4480000  
O 19.3480000   18.6600000   17.3590000  
O 15.7810000   19.2010000   24.3190000  
O 13.9440000   20.7680000   23.2070000  
H 15.9000000   21.0400000   18.1110000  
H 17.0790000   20.3430000   16.6990000  
H 18.5180000   18.2020000   19.9340000  
H 16.4680000   18.4890000   24.4730000  
H 14.1150000   20.1090000   23.9570000  
C 17.8510000   18.0030000   22.5490000  
C 19.2420000   18.3080000   22.5880000  
C 20.1870000   17.3500000   22.8050000  
C 19.9200000   15.9970000   23.0020000  
C 18.5490000   15.6920000   23.1850000  
C 17.5830000   16.6870000   22.8210000  
C 20.0550000   19.5390000   22.6130000  
C 21.4120000   19.1700000   22.6900000  
N 21.4480000   17.7710000   22.9450000  
O 22.3640000   21.2900000   22.7020000  
C 22.6270000   20.0190000   22.6410000  
O 23.7990000   19.6120000   22.5690000  
O 18.1380000   14.4570000   23.5600000  
O 16.2220000   16.3830000   22.9950000  
H 19.7290000   20.5360000   22.6070000  
H 21.4030000   21.4450000   22.7320000  
H 22.3490000   17.2640000   23.0190000  
H 18.8740000   13.8670000   23.8540000  
H 16.1660000   15.5090000   23.3390000  
C 20.9630000   14.9580000   23.3880000  
C 21.6020000   15.0860000   24.6320000  
C 22.4790000   14.0920000   25.0700000  
C 22.7460000   12.9010000   24.3830000  
C 22.1640000   12.8260000   23.0600000  
C 21.2280000   13.7820000   22.5990000  
C 21.7160000   16.1800000   25.5600000  
C 22.5770000   15.8550000   26.5430000  
N 23.0120000   14.5130000   26.2830000  
O 22.3040000   17.9230000   27.7150000  
C 22.8530000   16.6830000   27.6880000  
O 23.6010000   16.3300000   28.6250000  
O 22.5230000   11.7300000   22.2810000  
O 20.5050000   13.5570000   21.4930000  
H 21.0180000   17.0400000   25.6300000  
H 21.8780000   18.0520000   26.8730000  
H 23.7190000   14.0860000   26.9100000  
H 23.3780000   11.3900000   22.6130000  
H 20.7580000   12.6800000   21.1160000  
H 23.3050000   12.1010000   24.8090000  
