78
011 
C 17.0590000   22.4250000   28.1170000  
C 15.7220000   22.3960000   28.5710000  
C 14.7810000   21.4790000   27.8850000  
C 15.2880000   20.6590000   26.8780000  
C 16.6300000   20.6610000   26.4150000  
C 17.4560000   21.5940000   26.9860000  
C 13.3840000   21.3550000   27.8570000  
C 13.0540000   20.4940000   26.8730000  
N 14.2290000   19.9930000   26.2180000  
O 10.7390000   20.8840000   27.0570000  
C 11.6950000   20.3410000   26.3330000  
O 11.4780000   19.7590000   25.2810000  
O 18.7650000   21.6710000   26.6510000  
O 17.9940000   23.1910000   28.7380000  
H 15.4350000   22.9900000   29.4410000  
H 12.7450000   22.0860000   28.3880000  
H 11.2140000   21.3440000   27.7340000  
H 14.2710000   19.4230000   25.3950000  
H 18.9470000   21.0120000   26.0280000  
H 18.8530000   22.8090000   28.4890000  
C 17.0790000   19.9140000   25.2050000  
C 16.4730000   20.1350000   23.9150000  
C 16.8980000   19.3830000   22.8610000  
C 17.9240000   18.3810000   22.8840000  
C 18.5260000   18.1520000   24.1770000  
C 18.0970000   18.9380000   25.2800000  
C 15.4160000   21.0550000   23.4460000  
C 15.1910000   20.7530000   22.1030000  
N 16.1220000   19.7170000   21.7330000  
O 13.3860000   22.3620000   21.8880000  
C 14.2490000   21.4980000   21.2560000  
O 14.1350000   21.3700000   20.0740000  
O 19.5000000   17.1880000   24.4170000  
O 18.8070000   18.6680000   26.4910000  
H 14.7880000   21.7520000   23.9930000  
H 13.7010000   22.3810000   22.7740000  
H 16.1580000   19.3240000   20.7700000  
H 19.6550000   16.5110000   23.7450000  
H 19.3540000   17.8980000   26.3300000  
C 18.3520000   17.7100000   21.5890000  
C 18.7750000   18.4610000   20.4470000  
C 19.0890000   17.8520000   19.2280000  
C 19.2130000   16.4630000   19.1500000  
C 18.9030000   15.6860000   20.3240000  
C 18.5060000   16.2870000   21.5300000  
C 18.9960000   19.8490000   20.2390000  
C 19.4280000   20.0880000   18.9270000  
N 19.5590000   18.7840000   18.2960000  
O 19.3670000   22.4350000   19.0850000  
C 19.8090000   21.3860000   18.3370000  
O 20.3440000   21.6240000   17.3080000  
O 18.8930000   14.2930000   20.1950000  
O 17.9940000   15.4470000   22.4530000  
H 18.7690000   20.7000000   20.9480000  
H 19.2410000   22.0050000   19.9410000  
H 19.9050000   18.6180000   17.3280000  
H 18.6160000   14.2300000   19.2360000  
H 18.1540000   14.5130000   22.1190000  
C 19.4770000   15.7920000   17.9020000  
C 20.7250000   15.0890000   17.7970000  
C 21.0390000   14.4820000   16.5720000  
C 20.3080000   14.7230000   15.4120000  
C 19.0670000   15.3920000   15.5830000  
C 18.6060000   15.8570000   16.7790000  
C 21.7800000   14.6510000   18.7440000  
C 22.6100000   13.8430000   17.9980000  
N 22.2040000   13.7510000   16.6410000  
O 23.7730000   13.1070000   19.9910000  
C 23.6650000   12.9800000   18.6460000  
O 24.4470000   12.1580000   18.1130000  
O 18.2150000   15.4030000   14.4700000  
O 17.4120000   16.5420000   16.7910000  
H 21.7020000   14.8480000   19.8420000  
H 23.0740000   13.6580000   20.2820000  
H 22.6780000   13.2820000   15.8680000  
H 18.4110000   14.7450000   13.7880000  
H 17.2240000   16.4640000   15.8780000  
H 20.6940000   14.4530000   14.4550000  
