78
011 
C 20.9000000   17.4110000   28.6320000  
C 20.0720000   18.0170000   29.6110000  
C 18.8470000   18.5230000   29.2130000  
C 18.4360000   18.4100000   27.9460000  
C 19.2240000   17.9580000   26.8760000  
C 20.5040000   17.4340000   27.2570000  
C 17.7450000   19.1710000   29.9220000  
C 16.7250000   19.3760000   29.0180000  
N 17.2360000   19.0500000   27.7330000  
O 15.1400000   19.8830000   30.6970000  
C 15.3360000   19.7390000   29.3770000  
O 14.4440000   19.8810000   28.6070000  
O 21.3240000   16.9830000   26.2960000  
O 22.0280000   16.7530000   29.0280000  
H 20.3150000   18.1390000   30.6710000  
H 17.7210000   19.3400000   30.9390000  
H 15.9360000   19.7140000   31.1160000  
H 16.7030000   19.0150000   26.8240000  
H 20.8300000   16.9280000   25.4990000  
H 22.6640000   16.7360000   28.3240000  
C 18.8210000   17.8070000   25.4510000  
C 18.4350000   18.9120000   24.7200000  
C 18.1700000   18.8540000   23.3960000  
C 18.0770000   17.6520000   22.6610000  
C 18.3230000   16.5050000   23.4480000  
C 18.7000000   16.5480000   24.8190000  
C 18.5540000   20.2920000   25.0550000  
C 18.1950000   21.0170000   23.9430000  
N 18.0300000   20.1150000   22.8530000  
O 18.3260000   23.1180000   24.8840000  
C 17.9100000   22.4320000   23.8560000  
O 17.4240000   22.9810000   22.8980000  
O 18.1260000   15.2950000   22.8300000  
O 19.0290000   15.3570000   25.4230000  
H 18.6970000   20.7070000   26.0170000  
H 18.4140000   22.3830000   25.5070000  
H 17.6600000   20.4460000   21.9390000  
H 17.8830000   15.3760000   21.8650000  
H 18.9090000   14.7080000   24.6800000  
C 17.5250000   17.6200000   21.2350000  
C 18.2460000   18.2930000   20.2400000  
C 17.6830000   18.4780000   19.0250000  
C 16.3620000   18.0730000   18.5990000  
C 15.6230000   17.4630000   19.6340000  
C 16.2600000   17.1460000   20.8490000  
C 19.5680000   18.7920000   20.1460000  
C 19.7530000   19.2830000   18.8200000  
N 18.5060000   19.2090000   18.1840000  
O 22.0440000   19.7290000   18.9360000  
C 21.0310000   19.8000000   18.1660000  
O 21.1360000   20.2040000   17.0170000  
O 14.3720000   17.0440000   19.3430000  
O 15.4540000   16.5980000   21.8050000  
H 20.2910000   19.0550000   20.8850000  
H 21.6100000   19.2580000   19.7030000  
H 18.2670000   19.6380000   17.2990000  
H 14.3180000   17.3980000   18.4630000  
H 14.6910000   16.3610000   21.3380000  
C 15.8510000   18.3660000   17.1820000  
C 16.6470000   17.8980000   16.0940000  
C 16.3610000   18.2150000   14.7860000  
C 15.1940000   18.9410000   14.5300000  
C 14.4160000   19.4030000   15.5300000  
C 14.6770000   19.1200000   16.8540000  
C 17.8120000   17.0520000   16.0740000  
C 18.2850000   16.9850000   14.7080000  
N 17.3490000   17.7150000   13.9440000  
O 20.1170000   15.6100000   15.3160000  
C 19.3880000   16.1380000   14.3190000  
O 19.5960000   15.7810000   13.1610000  
O 13.3930000   20.2470000   15.2270000  
O 13.9470000   19.5540000   17.9010000  
H 18.2130000   16.5340000   16.9650000  
H 19.9130000   16.1670000   16.0580000  
H 17.3630000   17.7280000   12.9310000  
H 13.5400000   20.4550000   14.2790000  
H 13.5350000   20.4190000   17.5740000  
H 14.9460000   19.0540000   13.4880000  
