78
011 
C 13.3980000   24.4190000   22.5910000  
C 12.0560000   23.9500000   22.9440000  
C 11.9410000   22.5640000   23.0840000  
C 12.9510000   21.6900000   22.9050000  
C 14.3110000   22.0830000   22.5960000  
C 14.4580000   23.4800000   22.4070000  
C 10.7320000   21.7390000   23.3950000  
C 11.1540000   20.4180000   23.2740000  
N 12.5460000   20.3670000   23.0340000  
O  8.9760000   19.5810000   23.5280000  
C 10.2670000   19.2530000   23.4530000  
O 10.6410000   18.1300000   23.4670000  
O 15.6600000   23.9750000   22.0670000  
O 13.6110000   25.7480000   22.2360000  
H 11.1900000   24.5610000   22.9550000  
H  9.8140000   22.0990000   23.8390000  
H  9.0270000   20.5140000   23.3110000  
H 13.0100000   19.4880000   22.9460000  
H 16.2040000   23.1170000   21.9260000  
H 14.4700000   25.7400000   21.7450000  
C 15.3670000   21.1130000   22.2870000  
C 16.0220000   21.0700000   20.9640000  
C 16.9520000   20.1260000   20.6940000  
C 17.4480000   19.1950000   21.6500000  
C 16.6470000   19.0590000   22.8640000  
C 15.7270000   20.0880000   23.2390000  
C 15.8670000   21.8920000   19.7960000  
C 16.9400000   21.5280000   18.9880000  
N 17.6260000   20.4960000   19.5580000  
O 16.6660000   23.2310000   17.3240000  
C 17.3200000   22.1340000   17.6500000  
O 18.1980000   21.6870000   16.9690000  
O 16.8970000   18.0460000   23.7490000  
O 15.3790000   20.1180000   24.4930000  
H 15.1410000   22.7120000   19.6450000  
H 16.0920000   23.1980000   18.0180000  
H 18.4820000   19.9710000   19.1530000  
H 17.3580000   17.3430000   23.3280000  
H 15.7680000   19.3060000   24.8920000  
C 18.5500000   18.2350000   21.3310000  
C 19.6940000   18.1340000   22.1450000  
C 20.7000000   17.2770000   21.7770000  
C 20.6020000   16.2970000   20.7980000  
C 19.4420000   16.2700000   19.9960000  
C 18.4320000   17.2650000   20.2650000  
C 20.0920000   18.8250000   23.3180000  
C 21.4000000   18.4010000   23.6390000  
N 21.7200000   17.3890000   22.7320000  
O 21.4360000   19.4560000   25.8020000  
C 22.1530000   18.6470000   24.9670000  
O 23.2490000   18.1190000   25.2760000  
O 19.3370000   15.5110000   18.8740000  
O 17.3140000   17.3100000   19.4720000  
H 19.6040000   19.4730000   23.9580000  
H 20.7060000   19.7000000   25.2470000  
H 22.5650000   16.9030000   22.6200000  
H 20.1850000   15.0040000   18.7630000  
H 17.2480000   16.4540000   19.0330000  
C 21.6790000   15.3120000   20.5830000  
C 21.6920000   14.1340000   21.4250000  
C 22.7390000   13.2780000   21.4530000  
C 23.9240000   13.5430000   20.7030000  
C 23.9500000   14.7110000   19.8470000  
C 22.8230000   15.5250000   19.7660000  
C 20.7850000   13.6430000   22.4130000  
C 21.2440000   12.4240000   22.8880000  
N 22.5170000   12.2490000   22.3420000  
O 19.3840000   11.9830000   24.1780000  
C 20.5660000   11.5280000   23.8080000  
O 21.0230000   10.5160000   24.2500000  
O 25.0720000   15.0480000   19.0380000  
O 22.8630000   16.7160000   19.1180000  
H 19.7990000   14.0320000   22.6590000  
H 19.1790000   12.7610000   23.7660000  
H 23.0400000   11.3750000   22.3250000  
H 25.5950000   14.2200000   18.8290000  
H 23.7650000   16.8080000   18.8240000  
H 24.7790000   12.9070000   20.8520000  
