78
011 
C 23.7510000   18.0310000   26.3710000  
C 23.6460000   16.8400000   27.1760000  
C 22.4710000   16.1490000   27.1240000  
C 21.3670000   16.5180000   26.3060000  
C 21.4070000   17.6060000   25.4330000  
C 22.6290000   18.3560000   25.5070000  
C 22.0880000   14.9540000   27.7970000  
C 20.9360000   14.4580000   27.1580000  
N 20.4710000   15.4920000   26.2830000  
O 20.7600000   12.5020000   28.5370000  
C 20.1440000   13.2410000   27.5460000  
O 19.0790000   12.7600000   27.1090000  
O 22.8010000   19.4070000   24.6180000  
O 24.8970000   18.8020000   26.4860000  
H 24.3790000   16.6230000   27.8940000  
H 22.6530000   14.4290000   28.4980000  
H 21.4140000   13.0710000   28.9590000  
H 19.7010000   15.4000000   25.6710000  
H 22.1440000   19.3430000   23.9920000  
H 24.6220000   19.6770000   26.1860000  
C 20.4840000   17.7630000   24.2640000  
C 19.1260000   18.1250000   24.5550000  
C 18.3140000   18.4050000   23.5970000  
C 18.5870000   18.4140000   22.2320000  
C 19.9010000   18.0970000   21.8780000  
C 20.8310000   17.6440000   22.9240000  
C 18.3990000   18.1980000   25.7560000  
C 17.1020000   18.4390000   25.4690000  
N 17.0640000   18.6230000   24.1350000  
O 16.3060000   18.1020000   27.6680000  
C 15.9700000   18.3780000   26.3510000  
O 14.8060000   18.5000000   26.0030000  
O 20.3210000   17.9660000   20.6110000  
O 22.1420000   17.2950000   22.5260000  
H 18.8330000   18.2740000   26.7300000  
H 17.2320000   17.8710000   27.6290000  
H 16.1990000   18.7120000   23.6000000  
H 19.7030000   18.3240000   19.9210000  
H 22.1700000   17.3790000   21.5570000  
C 17.4630000   18.7880000   21.3060000  
C 17.4250000   20.0470000   20.6780000  
C 16.5230000   20.3530000   19.7130000  
C 15.4600000   19.5400000   19.3280000  
C 15.4170000   18.2750000   20.0720000  
C 16.4390000   17.9210000   21.0210000  
C 18.3250000   21.1280000   20.7310000  
C 17.9320000   22.0740000   19.8130000  
N 16.7570000   21.6120000   19.1810000  
O 19.4270000   23.7370000   20.4670000  
C 18.3900000   23.4620000   19.6830000  
O 17.9030000   24.3900000   19.0640000  
O 14.3090000   17.4310000   19.9570000  
O 16.4390000   16.6980000   21.6520000  
H 19.0990000   21.2610000   21.4720000  
H 19.5820000   23.0160000   21.0820000  
H 16.1440000   22.1070000   18.5790000  
H 13.6590000   17.9900000   19.4100000  
H 17.2720000   16.4860000   22.0800000  
C 14.5280000   19.9230000   18.2250000  
C 14.5810000   19.3650000   16.9020000  
C 13.5770000   19.6410000   16.0330000  
C 12.5170000   20.4650000   16.2830000  
C 12.4430000   20.9800000   17.5770000  
C 13.4000000   20.7070000   18.5490000  
C 15.4280000   18.3940000   16.3210000  
C 14.9550000   18.0800000   15.0930000  
N 13.8710000   18.9060000   14.8960000  
O 16.6540000   16.4980000   14.6200000  
C 15.4500000   17.0300000   14.2230000  
O 14.9050000   16.8050000   13.1690000  
O 11.5170000   21.9670000   17.8290000  
O 13.1610000   21.2520000   19.7850000  
H 16.0930000   17.7130000   16.8710000  
H 16.7940000   16.9710000   15.4130000  
H 13.2760000   18.8910000   14.0270000  
H 11.2600000   22.4010000   16.9660000  
H 12.2830000   21.6700000   19.7670000  
H 11.8400000   20.7690000   15.4940000  
