78
011 
C 14.1040000   24.1850000   24.3900000  
C 12.6420000   24.0030000   24.3780000  
C 12.1710000   22.8150000   23.9230000  
C 13.0000000   21.8770000   23.4150000  
C 14.4000000   21.9820000   23.4300000  
C 14.9700000   23.1640000   23.8910000  
C 10.8050000   22.3330000   23.7700000  
C 10.9210000   21.1670000   23.0090000  
N 12.2910000   20.8710000   22.8070000  
O  8.5700000   20.6550000   22.8590000  
C  9.8280000   20.4280000   22.3940000  
O 10.1250000   19.5530000   21.6070000  
O 16.2920000   23.3600000   23.8130000  
O 14.6010000   25.3080000   24.8380000  
H 12.0110000   24.7820000   24.8090000  
H  9.8620000   22.7710000   24.0440000  
H  8.6040000   21.2580000   23.5980000  
H 12.6340000   20.1090000   22.2240000  
H 16.6490000   22.4720000   23.5870000  
H 15.5450000   25.1540000   24.8450000  
C 15.2570000   20.8820000   22.8460000  
C 16.0080000   21.0750000   21.6340000  
C 16.8410000   20.1100000   21.1940000  
C 17.0990000   18.9310000   21.9640000  
C 16.2860000   18.7080000   23.1620000  
C 15.3630000   19.6280000   23.5550000  
C 16.2840000   22.1750000   20.7600000  
C 17.2700000   21.7080000   19.8470000  
N 17.8150000   20.5680000   20.3280000  
O 17.0680000   23.6100000   18.3380000  
C 17.6210000   22.3460000   18.5210000  
O 18.2450000   21.7420000   17.7240000  
O 16.4910000   17.6100000   23.8670000  
O 14.6530000   19.3820000   24.7040000  
H 15.7070000   22.9940000   20.4510000  
H 16.8200000   23.9750000   19.1230000  
H 18.5930000   20.0530000   19.9660000  
H 17.0240000   17.0160000   23.3280000  
H 14.9560000   18.5830000   25.2080000  
C 18.0590000   17.8820000   21.4400000  
C 19.3450000   17.8850000   22.0120000  
C 20.2960000   17.0220000   21.5360000  
C 20.1150000   16.1290000   20.4760000  
C 18.8000000   16.0290000   20.0200000  
C 17.7480000   16.8360000   20.5110000  
C 20.0370000   18.6050000   23.0860000  
C 21.3250000   18.0520000   23.1810000  
N 21.4700000   17.0090000   22.2640000  
O 21.8980000   19.3110000   25.0860000  
C 22.3470000   18.5010000   24.1230000  
O 23.4530000   18.0250000   24.0990000  
O 18.5110000   15.0540000   19.1120000  
O 16.5020000   16.8230000   19.9900000  
H 19.6460000   19.3870000   23.6370000  
H 20.9880000   19.4510000   24.9270000  
H 22.3150000   16.5370000   21.9310000  
H 19.2330000   14.3490000   19.2540000  
H 16.3290000   16.0690000   19.3850000  
C 21.2160000   15.2020000   19.9840000  
C 21.9190000   14.2890000   20.8690000  
C 22.8970000   13.5390000   20.3950000  
C 23.2240000   13.5630000   19.0240000  
C 22.5280000   14.4210000   18.1420000  
C 21.5550000   15.2750000   18.6150000  
C 21.6720000   13.8330000   22.2040000  
C 22.5580000   12.7950000   22.4350000  
N 23.2850000   12.5930000   21.2580000  
O 21.8890000   12.2440000   24.6620000  
C 22.7720000   12.0210000   23.6490000  
O 23.6400000   11.2080000   23.7760000  
O 22.9530000   14.5740000   16.9100000  
O 21.0250000   16.1990000   17.7880000  
H 21.0220000   14.2860000   22.9510000  
H 21.2980000   12.8480000   24.2120000  
H 23.8650000   11.7690000   21.1080000  
H 23.6040000   13.8420000   16.7160000  
H 21.4830000   16.0210000   16.9320000  
H 24.0570000   12.9470000   18.6460000  
