78
011 
C 23.9740000   15.0700000   23.5810000  
C 24.1660000   14.9830000   24.9690000  
C 23.0200000   15.2160000   25.8170000  
C 21.8640000   15.6100000   25.2600000  
C 21.6100000   15.7530000   23.9000000  
C 22.7220000   15.4870000   23.0610000  
C 22.8140000   14.9550000   27.2310000  
C 21.4480000   15.2300000   27.4280000  
N 20.8790000   15.6720000   26.2250000  
O 21.3580000   14.4950000   29.7340000  
C 20.6590000   14.8990000   28.6550000  
O 19.4370000   15.0500000   28.6820000  
O 22.6850000   15.6210000   21.7370000  
O 25.0360000   14.8300000   22.7510000  
H 25.1500000   14.7620000   25.4430000  
H 23.5490000   14.6800000   28.0080000  
H 22.2460000   14.3240000   29.4580000  
H 19.8860000   15.8630000   26.0970000  
H 21.8260000   15.4590000   21.3720000  
H 24.7040000   14.7990000   21.8090000  
C 20.3420000   16.2540000   23.4230000  
C 19.9660000   17.5970000   23.7210000  
C 18.9000000   18.1850000   23.1340000  
C 18.0110000   17.5150000   22.2400000  
C 18.3190000   16.1140000   22.0150000  
C 19.4370000   15.5280000   22.6100000  
C 20.7170000   18.5920000   24.4200000  
C 20.0470000   19.8220000   24.2490000  
N 18.9280000   19.4980000   23.4520000  
O 21.5850000   21.1080000   25.5110000  
C 20.4370000   21.1340000   24.8130000  
O 19.7270000   22.1260000   24.6660000  
O 17.5800000   15.5330000   21.0560000  
O 19.6740000   14.2320000   22.3230000  
H 21.5630000   18.3330000   25.1190000  
H 21.9110000   20.1770000   25.5500000  
H 18.1790000   20.1520000   23.2050000  
H 16.7750000   16.0700000   20.8740000  
H 18.9140000   14.0300000   21.7570000  
C 16.8540000   18.1660000   21.5760000  
C 17.1140000   19.2290000   20.7510000  
C 16.1140000   19.9260000   20.1870000  
C 14.7240000   19.7310000   20.3700000  
C 14.3860000   18.5830000   21.2180000  
C 15.4540000   17.8150000   21.8120000  
C 18.3320000   19.9210000   20.3110000  
C 17.9890000   21.1890000   19.7940000  
N 16.6010000   21.1040000   19.5820000  
O 20.1690000   22.1660000   19.8860000  
C 18.8900000   22.3350000   19.4900000  
O 18.5710000   23.3870000   18.9900000  
O 13.0530000   18.1370000   21.2720000  
O 15.1390000   16.6700000   22.4230000  
H 19.3820000   19.6640000   20.4890000  
H 20.1290000   21.2960000   20.2050000  
H 15.9520000   21.8720000   19.2600000  
H 12.5050000   18.7390000   20.7300000  
H 14.2620000   16.8120000   22.8970000  
C 13.6370000   20.5020000   19.6950000  
C 13.5590000   20.5720000   18.2830000  
C 12.5030000   21.1180000   17.6170000  
C 11.4610000   21.7000000   18.3280000  
C 11.5400000   21.6890000   19.7660000  
C 12.6150000   21.1190000   20.4500000  
C 14.4530000   20.0510000   17.2780000  
C 13.8200000   20.1700000   16.0700000  
N 12.6100000   20.8150000   16.2870000  
O 15.3650000   19.0080000   14.6540000  
C 14.1770000   19.7380000   14.7190000  
O 13.4440000   19.9760000   13.7490000  
O 10.4420000   22.1180000   20.5470000  
O 12.6780000   21.0940000   21.8260000  
H 15.4760000   19.5910000   17.5140000  
H 15.7290000   19.0080000   15.5150000  
H 11.9460000   21.0420000   15.6000000  
H  9.6790000   22.2380000   19.9140000  
H 11.8160000   21.4820000   22.1960000  
H 10.5540000   22.1580000   17.7830000  
