78
011 
C 23.8100000   17.6950000   26.6500000  
C 23.7550000   16.3500000   27.0700000  
C 22.8450000   15.5020000   26.4100000  
C 22.0150000   15.9980000   25.5080000  
C 22.0560000   17.2620000   24.9160000  
C 23.0010000   18.2200000   25.5560000  
C 22.3430000   14.1880000   26.7070000  
C 21.2630000   13.9350000   25.8990000  
N 21.0750000   15.0970000   25.1300000  
O 20.8480000   11.7280000   26.5330000  
C 20.4940000   12.6690000   25.6940000  
O 19.7050000   12.4990000   24.7520000  
O 23.0610000   19.5390000   25.2170000  
O 24.6940000   18.5280000   27.1490000  
H 24.4420000   15.8930000   27.7770000  
H 22.7710000   13.5970000   27.5090000  
H 21.5190000   12.2100000   27.0020000  
H 20.4810000   15.2100000   24.3060000  
H 22.2600000   19.7570000   24.8440000  
H 24.6580000   19.4210000   26.6450000  
C 20.9880000   17.7280000   23.9720000  
C 19.6750000   17.8610000   24.4370000  
C 18.6340000   18.1780000   23.5880000  
C 18.7250000   18.5840000   22.2760000  
C 20.0550000   18.5480000   21.7690000  
C 21.1570000   18.1530000   22.6470000  
C 19.0950000   17.5830000   25.7110000  
C 17.7570000   17.8410000   25.5710000  
N 17.4520000   18.1330000   24.2930000  
O 17.2340000   17.0720000   27.7610000  
C 16.6920000   17.4920000   26.5840000  
O 15.5170000   17.5530000   26.3260000  
O 20.3770000   18.8690000   20.4260000  
O 22.4260000   18.1530000   22.1280000  
H 19.6200000   17.2810000   26.6550000  
H 18.1740000   17.2450000   27.6360000  
H 16.5650000   18.5860000   24.0080000  
H 19.5410000   18.9240000   19.9440000  
H 22.4350000   18.3330000   21.1550000  
C 17.6040000   18.9860000   21.3260000  
C 17.5850000   20.1890000   20.5910000  
C 16.5440000   20.5890000   19.7450000  
C 15.3540000   19.8770000   19.6130000  
C 15.3330000   18.6050000   20.3230000  
C 16.4760000   18.2180000   21.1790000  
C 18.4310000   21.3670000   20.6790000  
C 17.8960000   22.3770000   19.8900000  
N 16.6460000   21.8860000   19.3560000  
O 19.4660000   24.1190000   20.5030000  
C 18.3220000   23.8400000   19.8340000  
O 17.8050000   24.6740000   19.0800000  
O 14.1760000   17.8520000   20.2580000  
O 16.4710000   16.9850000   21.7920000  
H 19.3870000   21.3690000   21.1810000  
H 19.9620000   23.3420000   20.7010000  
H 15.9160000   22.3540000   18.7930000  
H 13.5910000   18.3960000   19.7530000  
H 17.3090000   16.7990000   22.2490000  
C 14.2550000   20.2060000   18.7520000  
C 13.9110000   19.5160000   17.5280000  
C 12.8340000   19.8930000   16.7810000  
C 12.0310000   20.9520000   17.1520000  
C 12.3410000   21.6980000   18.3110000  
C 13.3990000   21.3330000   19.1430000  
C 14.4460000   18.3340000   16.9020000  
C 13.6520000   18.1090000   15.7940000  
N 12.7070000   19.1130000   15.6770000  
O 14.8360000   16.0570000   15.0180000  
C 13.7570000   16.9040000   14.8860000  
O 12.9430000   16.6580000   14.0110000  
O 11.6730000   22.8120000   18.5150000  
O 13.5980000   22.0850000   20.3050000  
H 15.2610000   17.6400000   17.1640000  
H 15.3590000   16.5600000   15.6340000  
H 11.9080000   19.1710000   14.9940000  
H 11.1260000   23.0180000   17.7750000  
H 12.8280000   22.6420000   20.5120000  
H 11.2690000   21.2900000   16.4590000  
