78
011 
C 16.1050000   20.0650000   14.5970000  
C 16.0360000   18.8090000   13.9360000  
C 16.1940000   17.6380000   14.7040000  
C 16.4770000   17.7240000   16.0150000  
C 16.5870000   18.9500000   16.7120000  
C 16.4320000   20.1460000   15.9990000  
C 16.2790000   16.2270000   14.3630000  
C 16.5260000   15.5300000   15.5550000  
N 16.7330000   16.4910000   16.5320000  
O 16.3230000   13.4050000   14.5920000  
C 16.6460000   14.0400000   15.7240000  
O 16.9280000   13.5810000   16.8520000  
O 16.6370000   21.3660000   16.5920000  
O 15.9090000   21.1910000   13.8840000  
H 15.8170000   18.7260000   12.9440000  
H 16.2330000   15.7210000   13.3930000  
H 16.0610000   14.1400000   14.0080000  
H 16.7180000   16.2700000   17.5050000  
H 16.8220000   21.2970000   17.5920000  
H 15.7290000   21.9560000   14.4910000  
C 16.8010000   18.8430000   18.1760000  
C 18.0540000   18.5990000   18.7460000  
C 18.2340000   18.6120000   20.0870000  
C 17.2130000   18.7490000   21.0470000  
C 15.9560000   19.0160000   20.4660000  
C 15.7890000   19.1530000   19.0910000  
C 19.3420000   18.2510000   18.1510000  
C 20.2550000   18.1340000   19.2050000  
N 19.5110000   18.2530000   20.4350000  
O 22.3050000   17.6310000   18.0290000  
C 21.7380000   17.6870000   19.2360000  
O 22.3000000   17.4100000   20.3160000  
O 14.8700000   19.2830000   21.2410000  
O 14.4620000   19.3290000   18.6290000  
H 19.6710000   18.2430000   17.1180000  
H 21.5870000   17.9040000   17.4030000  
H 19.9710000   18.1920000   21.3650000  
H 15.2000000   19.0940000   22.0890000  
H 13.9660000   19.5030000   19.4410000  
C 17.4750000   18.8070000   22.5280000  
C 18.4070000   19.6640000   23.1410000  
C 18.7820000   19.4740000   24.4400000  
C 18.1520000   18.5690000   25.3560000  
C 17.1890000   17.7860000   24.7530000  
C 16.8440000   17.8220000   23.3540000  
C 19.2880000   20.6580000   22.6520000  
C 20.1900000   20.9920000   23.6350000  
N 19.8850000   20.2510000   24.7620000  
O 21.3760000   22.6350000   22.4260000  
C 21.2660000   21.9640000   23.5800000  
O 22.0970000   22.0720000   24.4600000  
O 16.6360000   16.8120000   25.5360000  
O 15.9450000   16.9240000   22.8360000  
H 19.3330000   20.9910000   21.6110000  
H 20.6160000   22.4110000   21.9200000  
H 20.3610000   20.3640000   25.7100000  
H 17.0140000   16.9090000   26.4460000  
H 15.9930000   16.1190000   23.3530000  
C 18.6470000   18.2170000   26.6830000  
C 17.8190000   18.4600000   27.8620000  
C 18.0920000   17.9220000   29.0910000  
C 19.2920000   17.1840000   29.3410000  
C 20.1580000   17.0570000   28.2860000  
C 19.8340000   17.5010000   26.9410000  
C 16.6010000   19.1230000   27.9670000  
C 16.1560000   19.0240000   29.2920000  
N 17.1240000   18.2140000   29.9760000  
O 14.2030000   20.4670000   29.1670000  
C 15.0710000   19.7320000   29.9670000  
O 14.9340000   19.6250000   31.1680000  
O 21.3290000   16.4590000   28.5230000  
O 20.6650000   17.1190000   25.9540000  
H 16.0990000   19.5800000   27.2020000  
H 14.4130000   20.0910000   28.2980000  
H 17.1500000   17.8460000   30.9430000  
H 21.4520000   16.4360000   29.5230000  
H 21.4110000   16.5390000   26.2390000  
H 19.4390000   16.8150000   30.3310000  
