78
011 
C 10.4870000   20.3050000   21.2250000  
C 10.4250000   21.6770000   21.1800000  
C 11.5690000   22.4340000   21.1450000  
C 12.8340000   21.8510000   21.2790000  
C 13.0370000   20.4910000   21.2040000  
C 11.8280000   19.7010000   21.2260000  
C 11.7450000   23.8600000   21.2720000  
C 13.0850000   24.0210000   21.5240000  
N 13.7760000   22.8070000   21.5470000  
O 12.8980000   26.4500000   22.0060000  
C 13.7220000   25.3730000   21.8520000  
O 14.9350000   25.5300000   21.9570000  
O 11.9140000   18.3490000   21.2360000  
O  9.3740000   19.5100000   21.2280000  
H  9.4370000   22.1430000   21.1550000  
H 11.0230000   24.6250000   21.2090000  
H 11.9870000   26.0860000   22.0040000  
H 14.7860000   22.6810000   21.4710000  
H 12.8720000   18.1030000   21.3100000  
H  9.6900000   18.6840000   20.8930000  
C 14.4090000   19.9140000   21.1730000  
C 15.3020000   20.1600000   22.2370000  
C 16.5290000   19.6230000   22.1510000  
C 17.1040000   18.8100000   21.1190000  
C 16.2440000   18.6910000   20.0550000  
C 14.9040000   19.1850000   20.0780000  
C 15.2640000   20.9420000   23.4310000  
C 16.4840000   20.8110000   23.9930000  
N 17.3180000   19.9720000   23.1970000  
O 15.9550000   22.3980000   25.7970000  
C 16.8180000   21.4610000   25.2780000  
O 17.9370000   21.1920000   25.7630000  
O 16.5970000   18.1210000   18.8600000  
O 14.1130000   19.0650000   18.9730000  
H 14.3340000   21.3370000   23.7870000  
H 15.2500000   22.6880000   25.1100000  
H 18.1750000   19.4590000   23.4660000  
H 17.5090000   18.0610000   18.8100000  
H 14.6210000   18.9360000   18.1660000  
C 18.5360000   18.2440000   21.2470000  
C 18.8990000   17.2510000   22.2240000  
C 20.2020000   16.7400000   22.3440000  
C 21.2700000   17.1630000   21.5570000  
C 20.9260000   18.2340000   20.6980000  
C 19.6350000   18.7810000   20.5030000  
C 18.0340000   16.4000000   23.0360000  
C 18.8590000   15.3700000   23.5310000  
N 20.1670000   15.5080000   22.9830000  
O 17.1360000   14.0430000   24.5210000  
C 18.4340000   14.0720000   24.1350000  
O 19.0990000   13.0840000   24.1330000  
O 22.0000000   18.6850000   19.9890000  
O 19.5130000   19.8370000   19.6650000  
H 16.9460000   16.4520000   23.1310000  
H 16.7750000   14.8260000   24.1830000  
H 20.9500000   14.8280000   23.1010000  
H 22.7190000   18.1100000   20.2900000  
H 20.2550000   19.7670000   18.9320000  
C 22.6480000   16.6480000   21.8660000  
C 22.9910000   15.3280000   21.4670000  
C 24.2780000   14.8260000   21.5650000  
C 25.3290000   15.6120000   22.1150000  
C 25.0020000   16.9060000   22.6680000  
C 23.7140000   17.4310000   22.4550000  
C 22.2320000   14.2360000   20.8230000  
C 23.0710000   13.1290000   20.6910000  
N 24.3590000   13.5240000   21.0890000  
O 21.5270000   11.7080000   19.6850000  
C 22.7540000   11.7720000   20.2020000  
O 23.4590000   10.8180000   20.1740000  
O 25.9570000   17.7070000   23.2510000  
O 23.5180000   18.7570000   22.7620000  
H 21.2220000   14.2890000   20.4850000  
H 21.1060000   12.5380000   19.9930000  
H 25.2050000   13.0190000   20.9090000  
H 25.5350000   18.6310000   23.3910000  
H 22.7320000   19.0770000   22.2410000  
H 26.3940000   15.3490000   22.2190000  
