78
011 
C 17.2050000   20.8810000   28.8250000  
C 16.1010000   20.2410000   29.4540000  
C 15.2430000   19.4200000   28.6760000  
C 15.4990000   19.1780000   27.3640000  
C 16.6990000   19.5770000   26.7030000  
C 17.5420000   20.4920000   27.4740000  
C 13.9770000   18.7770000   28.9610000  
C 13.6160000   18.1400000   27.7920000  
N 14.5290000   18.3760000   26.8170000  
O 11.6630000   17.1100000   28.7400000  
C 12.3850000   17.3210000   27.6000000  
O 11.9890000   16.8580000   26.5030000  
O 18.7870000   20.8670000   26.9530000  
O 17.8990000   21.7780000   29.5410000  
H 15.7810000   20.4740000   30.4980000  
H 13.4760000   18.6760000   29.9450000  
H 12.1200000   17.4780000   29.4840000  
H 14.5820000   18.0290000   25.8850000  
H 19.1340000   20.1810000   26.3840000  
H 18.4810000   22.2340000   28.8520000  
C 16.9920000   19.0850000   25.3410000  
C 17.1150000   20.0400000   24.3460000  
C 17.4870000   19.5480000   23.1480000  
C 17.7060000   18.2250000   22.8290000  
C 17.4820000   17.2820000   23.8220000  
C 17.1780000   17.6560000   25.1270000  
C 16.8280000   21.4560000   24.0920000  
C 16.9820000   21.7100000   22.7290000  
N 17.2290000   20.5010000   22.1390000  
O 16.2910000   23.8410000   22.7830000  
C 16.7150000   22.9390000   21.9300000  
O 16.7980000   23.1300000   20.7010000  
O 17.6650000   15.9950000   23.5440000  
O 17.1090000   16.7830000   26.1470000  
H 16.5530000   22.2140000   24.8220000  
H 16.3200000   23.4250000   23.6590000  
H 17.2520000   20.2500000   21.1430000  
H 17.5340000   15.8820000   22.5500000  
H 17.4780000   15.8750000   25.9310000  
C 17.9240000   17.8800000   21.3740000  
C 18.9700000   18.4570000   20.6310000  
C 19.0400000   18.2570000   19.2730000  
C 18.1390000   17.4050000   18.5210000  
C 17.0560000   16.8730000   19.2830000  
C 16.8760000   17.2050000   20.6710000  
C 20.0640000   19.3030000   20.9430000  
C 20.7910000   19.5660000   19.7890000  
N 20.1350000   18.9110000   18.7220000  
O 22.3990000   21.0630000   20.7510000  
C 22.0230000   20.3350000   19.6470000  
O 22.7080000   20.3530000   18.6470000  
O 16.0500000   16.1850000   18.6720000  
O 15.7050000   16.9080000   21.3180000  
H 20.4000000   19.5810000   21.9540000  
H 21.6370000   21.1080000   21.3450000  
H 20.4910000   18.8280000   17.7340000  
H 16.0500000   16.4030000   17.7810000  
H 14.9980000   16.6610000   20.7410000  
C 18.4350000   17.1470000   17.0980000  
C 19.6900000   16.5160000   16.7850000  
C 20.1170000   16.4860000   15.5120000  
C 19.3440000   16.8410000   14.4080000  
C 18.0610000   17.4340000   14.6480000  
C 17.6880000   17.7290000   16.0230000  
C 20.6580000   15.8660000   17.6140000  
C 21.6170000   15.3670000   16.7590000  
N 21.2750000   15.8080000   15.4790000  
O 23.0110000   14.4430000   18.3220000  
C 22.7910000   14.5420000   17.0570000  
O 23.5640000   14.0510000   16.2580000  
O 17.2950000   17.7930000   13.5850000  
O 16.5410000   18.4720000   16.3190000  
H 20.3790000   15.3930000   18.5810000  
H 22.2810000   14.9780000   18.7290000  
H 21.8270000   15.7500000   14.6370000  
H 17.3280000   17.0320000   12.9620000  
H 16.2400000   18.8740000   15.4870000  
H 19.7380000   16.7380000   13.3910000  
