78
011 
C 18.2950000   15.2370000   14.9490000  
C 19.5640000   14.6640000   14.8300000  
C 20.4030000   14.6360000   15.9320000  
C 19.9420000   15.0530000   17.1410000  
C 18.6630000   15.7320000   17.4310000  
C 17.8690000   15.7890000   16.2620000  
C 21.7740000   14.3670000   16.0940000  
C 22.1390000   14.5320000   17.4120000  
N 20.9380000   14.8410000   18.1070000  
O 24.4070000   13.9530000   17.1800000  
C 23.4350000   14.1910000   18.1120000  
O 23.6530000   14.0180000   19.3110000  
O 16.6040000   16.4770000   16.1880000  
O 17.5290000   15.4930000   13.8340000  
H 19.9140000   14.1620000   13.8800000  
H 22.4670000   14.0780000   15.2600000  
H 23.8410000   13.9630000   16.3440000  
H 20.9500000   15.0350000   19.0720000  
H 16.4900000   16.9950000   17.0190000  
H 16.6920000   15.7250000   14.2400000  
C 18.1910000   16.2840000   18.7520000  
C 19.0880000   17.1340000   19.4170000  
C 18.7090000   17.7140000   20.5980000  
C 17.5330000   17.5510000   21.2910000  
C 16.5920000   16.7160000   20.6780000  
C 16.9340000   16.0360000   19.4680000  
C 20.4030000   17.7620000   19.2010000  
C 20.7720000   18.4210000   20.3670000  
N 19.6630000   18.5180000   21.2080000  
O 22.9110000   19.1670000   19.7480000  
C 21.9810000   19.1840000   20.6920000  
O 22.0690000   19.8390000   21.6960000  
O 15.3980000   16.2960000   21.2730000  
O 16.0520000   15.2730000   18.8730000  
H 20.9830000   17.5870000   18.2660000  
H 22.3970000   19.0070000   18.9420000  
H 19.5630000   19.0580000   22.0570000  
H 15.3790000   16.6700000   22.1760000  
H 15.2890000   15.2330000   19.4800000  
C 17.2380000   18.2390000   22.5570000  
C 17.0630000   19.6430000   22.6000000  
C 16.8570000   20.2810000   23.8010000  
C 17.0350000   19.7310000   25.0560000  
C 17.2080000   18.3310000   25.0250000  
C 17.3600000   17.6360000   23.8340000  
C 16.8310000   20.6410000   21.6270000  
C 16.4280000   21.8090000   22.2630000  
N 16.4020000   21.5790000   23.6550000  
O 16.0550000   23.1230000   20.2940000  
C 16.0130000   23.0690000   21.6610000  
O 15.7200000   24.0560000   22.3450000  
O 17.2920000   17.5850000   26.1750000  
O 17.4700000   16.3100000   23.8850000  
H 16.8090000   20.5100000   20.5300000  
H 16.5520000   22.3300000   20.0850000  
H 16.3040000   22.3500000   24.3690000  
H 17.0060000   18.2220000   26.8770000  
H 17.7960000   16.2210000   24.8000000  
C 16.8650000   20.4830000   26.3540000  
C 15.5920000   20.7830000   26.7460000  
C 15.3450000   21.4760000   27.8980000  
C 16.4150000   21.8420000   28.7400000  
C 17.7570000   21.5730000   28.3790000  
C 17.9860000   20.8640000   27.2100000  
C 14.3020000   20.5160000   26.1140000  
C 13.3700000   21.1630000   26.9600000  
N 13.9690000   21.5410000   28.1460000  
O 11.5010000   21.0080000   25.4680000  
C 11.9290000   21.2830000   26.7430000  
O 11.1250000   21.6630000   27.5770000  
O 18.7780000   22.0660000   29.1320000  
O 19.2290000   20.4940000   26.7540000  
H 14.1400000   20.1340000   25.1280000  
H 12.2560000   20.7330000   24.9220000  
H 13.5580000   21.8770000   28.9370000  
H 19.5730000   21.6680000   28.8350000  
H 19.2080000   20.2400000   25.8240000  
H 16.3040000   22.5790000   29.5410000  
