78
011 
C 14.8250000   22.6310000   26.9830000  
C 13.5480000   22.2390000   27.4520000  
C 12.9460000   21.1640000   26.8340000  
C 13.5870000   20.3950000   25.9440000  
C 14.8320000   20.7520000   25.4060000  
C 15.4250000   21.8890000   25.9410000  
C 11.6340000   20.5420000   26.9460000  
C 11.6420000   19.3840000   26.1430000  
N 12.8380000   19.3590000   25.4490000  
O  9.5460000   18.7260000   26.7580000  
C 10.5380000   18.4000000   25.9720000  
O 10.5450000   17.4260000   25.2190000  
O 16.6640000   22.2550000   25.5830000  
O 15.3800000   23.7500000   27.4520000  
H 12.9480000   22.8210000   28.2540000  
H 10.8590000   20.9390000   27.5020000  
H 10.0380000   19.2900000   27.3730000  
H 13.0600000   18.7660000   24.6440000  
H 17.0540000   21.4470000   25.1710000  
H 16.2410000   23.6430000   27.1410000  
C 15.5740000   19.9780000   24.3780000  
C 15.8010000   20.4730000   23.0630000  
C 16.6310000   19.8200000   22.2330000  
C 17.4070000   18.6860000   22.4750000  
C 17.2710000   18.2330000   23.7930000  
C 16.3150000   18.7880000   24.7100000  
C 15.4780000   21.7210000   22.4530000  
C 16.0710000   21.7460000   21.1710000  
N 16.8130000   20.5420000   21.0740000  
O 15.3300000   24.0020000   20.7490000  
C 16.0450000   22.9790000   20.3430000  
O 16.6340000   23.0870000   19.2720000  
O 17.9440000   17.1270000   24.2310000  
O 16.1170000   18.2160000   25.9340000  
H 14.9420000   22.4560000   22.9320000  
H 14.9450000   23.5630000   21.5140000  
H 17.4400000   20.2120000   20.3400000  
H 18.5290000   16.8510000   23.5670000  
H 15.3740000   18.6850000   26.3230000  
C 18.2070000   17.9520000   21.4720000  
C 19.5060000   18.3650000   20.9650000  
C 20.1450000   17.6020000   20.0070000  
C 19.5440000   16.5390000   19.3150000  
C 18.3020000   16.1040000   19.8170000  
C 17.7080000   16.7240000   20.8790000  
C 20.4150000   19.4570000   21.3380000  
C 21.5560000   19.3090000   20.6270000  
N 21.3410000   18.2660000   19.7020000  
O 22.8010000   21.1580000   21.6770000  
C 22.8330000   20.0420000   20.8670000  
O 23.9350000   19.6910000   20.4000000  
O 17.6950000   14.9320000   19.3840000  
O 16.4470000   16.3200000   21.2630000  
H 20.2810000   20.2660000   22.0410000  
H 21.8230000   21.2720000   21.6150000  
H 21.9180000   18.0930000   18.8670000  
H 18.3340000   14.4110000   18.8340000  
H 16.2350000   15.4600000   20.8290000  
C 20.1980000   15.9190000   18.1110000  
C 21.4230000   15.2310000   18.4010000  
C 22.0020000   14.3950000   17.4450000  
C 21.5090000   14.3840000   16.0790000  
C 20.3120000   15.0750000   15.8480000  
C 19.7240000   15.9000000   16.7800000  
C 22.1730000   15.1000000   19.5930000  
C 23.2270000   14.1960000   19.3250000  
N 23.1490000   13.7330000   17.9700000  
O 24.2860000   14.6640000   21.3900000  
C 24.4000000   14.0480000   20.1780000  
O 25.3610000   13.3550000   19.8490000  
O 19.7290000   14.9150000   14.5870000  
O 18.6670000   16.6910000   16.4260000  
H 21.9960000   15.6680000   20.5000000  
H 23.3520000   14.9340000   21.4410000  
H 23.9420000   13.4630000   17.4260000  
H 20.3790000   14.5570000   14.0260000  
H 18.4800000   16.4680000   15.4600000  
H 21.9560000   13.6830000   15.4300000  
