78
011 
C 14.9370000   17.1060000   15.2030000  
C 15.8240000   17.1330000   14.1480000  
C 17.1110000   17.7060000   14.3850000  
C 17.4680000   18.0310000   15.7100000  
C 16.5740000   17.8990000   16.8370000  
C 15.2870000   17.4670000   16.5350000  
C 18.2010000   18.1230000   13.5460000  
C 19.2500000   18.4060000   14.4450000  
N 18.7060000   18.6170000   15.7290000  
O 21.0250000   18.6510000   12.8310000  
C 20.6700000   18.6560000   14.1740000  
O 21.4770000   19.0130000   15.0010000  
O 14.3410000   17.4040000   17.4900000  
O 13.6980000   16.6420000   14.9810000  
H 15.4370000   16.8530000   13.1280000  
H 18.2690000   17.8740000   12.5370000  
H 20.2170000   18.4320000   12.2960000  
H 19.2620000   19.0540000   16.4990000  
H 14.5840000   17.7760000   18.3630000  
H 13.3000000   16.7880000   15.8670000  
C 16.9910000   18.0980000   18.2440000  
C 16.4440000   19.0600000   19.0500000  
C 16.8820000   19.2360000   20.3200000  
C 17.9430000   18.5190000   20.9740000  
C 18.5000000   17.5050000   20.1620000  
C 18.0230000   17.2480000   18.8400000  
C 15.5710000   20.1530000   18.7430000  
C 15.3150000   20.8130000   19.9320000  
N 16.1090000   20.2030000   20.9380000  
O 13.8430000   22.4050000   19.0140000  
C 14.3800000   21.9180000   20.1050000  
O 14.1100000   22.4220000   21.1850000  
O 19.3180000   16.6160000   20.7930000  
O 18.5480000   16.1410000   18.1760000  
H 15.0220000   20.4590000   17.7760000  
H 14.3430000   22.0220000   18.3140000  
H 16.1570000   20.4780000   21.9090000  
H 19.2830000   16.9040000   21.6910000  
H 18.8250000   15.4170000   18.7980000  
C 18.3320000   18.7900000   22.3770000  
C 17.4500000   18.5760000   23.4820000  
C 17.8910000   18.6760000   24.7950000  
C 19.1460000   19.1020000   25.2050000  
C 20.0760000   19.3260000   24.1290000  
C 19.6900000   19.1150000   22.7660000  
C 16.0690000   18.1930000   23.6400000  
C 15.8080000   17.9970000   24.9940000  
N 16.9500000   18.3780000   25.7670000  
O 13.5550000   17.1700000   24.6620000  
C 14.5430000   17.4970000   25.5240000  
O 14.3190000   17.3250000   26.6740000  
O 21.3800000   19.7110000   24.3630000  
O 20.6570000   19.0890000   21.7850000  
H 15.4030000   18.0390000   22.8290000  
H 14.1530000   17.0350000   23.8690000  
H 17.1010000   18.2400000   26.7720000  
H 21.5490000   19.5250000   25.3270000  
H 21.5910000   18.8630000   22.1290000  
C 19.4470000   19.3230000   26.6390000  
C 19.5150000   18.2910000   27.5440000  
C 19.8090000   18.4710000   28.8630000  
C 19.7950000   19.6990000   29.4520000  
C 19.7890000   20.7890000   28.5590000  
C 19.4760000   20.6280000   27.1650000  
C 19.5790000   16.8580000   27.2990000  
C 19.9880000   16.2570000   28.5070000  
N 20.0860000   17.2680000   29.5050000  
O 20.0840000   14.0440000   27.7140000  
C 20.4020000   14.8220000   28.7790000  
O 20.8500000   14.2950000   29.7800000  
O 19.9270000   22.0760000   29.0620000  
O 19.2140000   21.6490000   26.3530000  
H 19.6450000   16.3950000   26.3380000  
H 19.8910000   14.7960000   27.2070000  
H 20.2450000   17.0260000   30.4690000  
H 19.7090000   22.7190000   28.3240000  
H 18.9050000   21.3070000   25.4710000  
H 19.9680000   19.7940000   30.5110000  
