78
011 
C 19.3570000   14.8710000   28.1420000  
C 19.5740000   15.6960000   29.2540000  
C 19.4070000   17.0820000   28.9470000  
C 18.9420000   17.5680000   27.7320000  
C 18.7660000   16.7720000   26.5840000  
C 19.0270000   15.3780000   26.8690000  
C 19.3840000   18.2500000   29.7980000  
C 18.8290000   19.3320000   29.0970000  
N 18.4540000   18.8610000   27.8540000  
O 19.2170000   21.0000000   30.7970000  
C 18.8070000   20.7600000   29.4890000  
O 18.3770000   21.6470000   28.7490000  
O 19.0680000   14.4690000   25.7920000  
O 19.6770000   13.5030000   28.2340000  
H 19.9050000   15.3310000   30.2300000  
H 19.8860000   18.3820000   30.7780000  
H 19.5740000   20.1110000   31.1030000  
H 17.8220000   19.3460000   27.2220000  
H 18.9020000   14.8570000   24.9520000  
H 19.7040000   13.2830000   27.2860000  
C 18.4250000   17.1850000   25.1920000  
C 19.4260000   17.2130000   24.2560000  
C 19.1850000   17.6590000   22.9720000  
C 17.9460000   18.1390000   22.5020000  
C 16.8730000   18.0130000   23.4130000  
C 17.1090000   17.5130000   24.7660000  
C 20.8040000   16.8520000   24.2400000  
C 21.3490000   17.1410000   22.9790000  
N 20.2650000   17.6660000   22.1990000  
O 23.7970000   17.0320000   23.4140000  
C 22.7570000   17.2620000   22.5530000  
O 23.0120000   17.5080000   21.4290000  
O 15.6330000   18.4640000   23.1250000  
O 16.1050000   17.4790000   25.7080000  
H 21.4050000   16.5230000   25.0350000  
H 23.4270000   16.7590000   24.2210000  
H 20.2370000   18.1020000   21.3380000  
H 15.4970000   18.6430000   22.2120000  
H 15.2550000   17.7930000   25.3670000  
C 17.7400000   18.5780000   21.1120000  
C 17.0380000   17.7750000   20.2390000  
C 16.8300000   18.1390000   18.9670000  
C 17.3400000   19.2630000   18.3750000  
C 18.1320000   20.1080000   19.2660000  
C 18.2770000   19.8320000   20.5910000  
C 16.4900000   16.4530000   20.4860000  
C 15.9820000   16.0630000   19.2660000  
N 16.1360000   17.0920000   18.3560000  
O 15.2130000   13.9900000   20.1930000  
C 15.3380000   14.7270000   19.0620000  
O 14.7900000   14.4070000   18.0210000  
O 18.7060000   21.2410000   18.7540000  
O 19.0300000   20.6630000   21.3500000  
H 16.3370000   16.0220000   21.5020000  
H 15.4420000   14.6240000   20.8720000  
H 15.6440000   17.1650000   17.4440000  
H 18.4960000   21.1390000   17.8430000  
H 19.2050000   21.4960000   20.9210000  
C 17.1180000   19.6710000   16.9230000  
C 16.1280000   20.6030000   16.5970000  
C 15.8780000   21.0510000   15.3370000  
C 16.5940000   20.5430000   14.2980000  
C 17.5050000   19.5070000   14.4830000  
C 17.8060000   19.0500000   15.8150000  
C 15.2350000   21.4430000   17.3860000  
C 14.6820000   22.4610000   16.5380000  
N 14.9680000   22.0100000   15.2590000  
O 13.7710000   23.8220000   18.3590000  
C 13.8850000   23.5970000   17.0080000  
O 13.2950000   24.3940000   16.2890000  
O 18.1470000   19.0260000   13.3590000  
O 18.7850000   18.0580000   15.9740000  
H 15.0920000   21.4230000   18.4780000  
H 14.3810000   23.1750000   18.7250000  
H 14.6980000   22.5150000   14.4330000  
H 18.7140000   18.3290000   13.6350000  
H 19.2020000   18.0600000   16.8430000  
H 16.4490000   20.8880000   13.2650000  
