78
011 
C 20.1410000   14.5420000   28.0740000  
C 20.6640000   15.5100000   28.9540000  
C 20.5020000   16.8950000   28.5880000  
C 19.9330000   17.2270000   27.3910000  
C 19.4180000   16.2530000   26.4750000  
C 19.4450000   14.9020000   26.8930000  
C 20.9030000   18.1180000   29.2170000  
C 20.6460000   19.1870000   28.3610000  
N 20.0240000   18.6220000   27.2400000  
O 21.1080000   20.8300000   29.9080000  
C 20.8590000   20.6320000   28.6270000  
O 20.7710000   21.5330000   27.8050000  
O 18.8440000   13.9650000   26.0910000  
O 20.2200000   13.1980000   28.4150000  
H 21.1560000   15.2460000   29.8950000  
H 21.3200000   18.2070000   30.2480000  
H 21.0090000   19.8730000   30.2690000  
H 19.9210000   19.1300000   26.3260000  
H 18.5130000   14.4090000   25.2560000  
H 19.5740000   12.7840000   27.7990000  
C 18.8150000   16.7550000   25.1810000  
C 19.3500000   16.4300000   23.9090000  
C 18.8490000   16.9870000   22.7480000  
C 17.8730000   17.9990000   22.6190000  
C 17.2320000   18.2320000   23.8460000  
C 17.7340000   17.6950000   25.0830000  
C 20.5000000   15.6290000   23.6100000  
C 20.7200000   15.7960000   22.2850000  
N 19.7540000   16.6610000   21.7850000  
O 22.6550000   14.4500000   22.0270000  
C 21.6390000   15.0990000   21.4260000  
O 21.5160000   15.0560000   20.1860000  
O 16.1740000   19.1250000   23.8180000  
O 17.2500000   18.1330000   26.2700000  
H 21.0950000   15.0360000   24.2860000  
H 22.4290000   14.4730000   22.9670000  
H 19.7500000   17.0060000   20.8640000  
H 16.2790000   19.5130000   22.8970000  
H 16.5170000   18.7860000   26.1120000  
C 17.5380000   18.6270000   21.3480000  
C 17.0840000   17.9490000   20.1670000  
C 16.7390000   18.5530000   19.0250000  
C 16.8190000   19.9640000   18.8530000  
C 17.2430000   20.7330000   19.9980000  
C 17.6480000   20.0230000   21.2160000  
C 16.9770000   16.5030000   19.9250000  
C 16.4880000   16.3790000   18.5850000  
N 16.4270000   17.6950000   18.0210000  
O 16.5030000   13.9940000   18.3400000  
C 16.2500000   15.1770000   17.7100000  
O 15.8260000   15.1850000   16.5940000  
O 17.4200000   22.1040000   19.9750000  
O 18.1480000   20.8400000   22.2280000  
H 17.0690000   15.7150000   20.6710000  
H 16.4700000   14.2520000   19.2840000  
H 16.2780000   17.9400000   17.0410000  
H 16.8560000   22.4300000   19.2400000  
H 18.3590000   21.7070000   21.8110000  
C 16.5590000   20.5640000   17.5230000  
C 15.4200000   21.4150000   17.4570000  
C 14.9470000   21.8500000   16.1690000  
C 15.5300000   21.5050000   14.9760000  
C 16.7420000   20.7980000   15.0950000  
C 17.2500000   20.2580000   16.2950000  
C 14.3980000   21.9750000   18.3630000  
C 13.4840000   22.7270000   17.6050000  
N 13.7670000   22.5300000   16.2580000  
O 12.2440000   23.5070000   19.4840000  
C 12.3190000   23.4560000   18.1440000  
O 11.4800000   24.0380000   17.4320000  
O 17.3890000   20.5020000   13.8940000  
O 18.4130000   19.6340000   16.4040000  
H 14.3110000   21.8380000   19.4680000  
H 13.0160000   22.9880000   19.7550000  
H 13.2620000   22.8350000   15.4660000  
H 18.3330000   20.2260000   14.0500000  
H 18.7390000   19.6020000   17.3960000  
H 15.2610000   21.8180000   13.9940000  
