78
011 
C 19.1450000   13.9240000   16.0790000  
C 19.8930000   14.6370000   15.1570000  
C 20.2610000   15.9510000   15.4020000  
C 19.9810000   16.4370000   16.6130000  
C 19.3270000   15.7870000   17.7060000  
C 18.8940000   14.4520000   17.3920000  
C 20.8250000   16.9840000   14.5840000  
C 20.9110000   18.0990000   15.3980000  
N 20.3770000   17.7530000   16.6220000  
O 21.6380000   19.5850000   13.7130000  
C 21.3040000   19.4990000   15.0230000  
O 21.3360000   20.3720000   15.8080000  
O 18.3110000   13.6320000   18.3130000  
O 18.6980000   12.7110000   15.6870000  
H 20.2260000   14.1220000   14.2150000  
H 20.9960000   17.0220000   13.4980000  
H 21.3470000   18.7520000   13.3550000  
H 20.1730000   18.5190000   17.3280000  
H 18.0110000   14.2190000   18.9910000  
H 18.4100000   12.2580000   16.5160000  
C 19.1300000   16.4590000   19.0050000  
C 18.2360000   17.4730000   19.0950000  
C 18.1200000   18.1800000   20.2550000  
C 18.6880000   17.8280000   21.4660000  
C 19.6500000   16.8430000   21.3940000  
C 19.8830000   16.1590000   20.1770000  
C 17.5170000   18.2130000   18.0720000  
C 16.9770000   19.3440000   18.7150000  
N 17.2570000   19.2530000   20.0890000  
O 16.4290000   20.6440000   16.6940000  
C 16.3290000   20.4990000   18.0450000  
O 15.8240000   21.3870000   18.8230000  
O 20.3450000   16.4700000   22.5250000  
O 20.9210000   15.2080000   20.1540000  
H 17.6360000   18.0540000   17.0360000  
H 17.1010000   20.0180000   16.4480000  
H 16.9930000   19.8660000   20.8420000  
H 19.8730000   16.9210000   23.2660000  
H 21.2160000   15.2180000   21.0540000  
C 18.3100000   18.4970000   22.7540000  
C 16.9820000   18.3720000   23.1060000  
C 16.4740000   19.1800000   24.0600000  
C 17.2350000   19.9860000   24.9440000  
C 18.6460000   20.1150000   24.6310000  
C 19.1950000   19.3010000   23.5590000  
C 15.9480000   17.5640000   22.5750000  
C 14.8500000   17.8640000   23.3590000  
N 15.1750000   18.9190000   24.2700000  
O 13.2230000   16.3710000   22.4210000  
C 13.4500000   17.3160000   23.2880000  
O 12.5090000   17.7540000   23.9440000  
O 19.4040000   20.9590000   25.4470000  
O 20.4300000   19.6770000   23.1650000  
H 15.9780000   16.9010000   21.8120000  
H 13.9740000   16.2010000   21.7780000  
H 14.5620000   19.2890000   24.9700000  
H 18.7910000   21.2050000   26.1460000  
H 20.6290000   20.4030000   23.7720000  
C 16.5990000   20.7050000   26.0970000  
C 16.7960000   20.3410000   27.4440000  
C 16.1310000   20.9090000   28.5380000  
C 15.2710000   22.0390000   28.2890000  
C 15.0370000   22.3550000   26.9500000  
C 15.6780000   21.7370000   25.8600000  
C 17.7030000   19.3320000   28.0100000  
C 17.5450000   19.4190000   29.3810000  
N 16.5810000   20.4100000   29.7290000  
O 19.2870000   17.8140000   29.9500000  
C 18.2220000   18.5730000   30.3960000  
O 18.0150000   18.6270000   31.5970000  
O 14.1960000   23.4500000   26.7190000  
O 15.5900000   22.2960000   24.6190000  
H 18.4460000   18.7320000   27.6080000  
H 19.3330000   18.0350000   29.0470000  
H 16.2070000   20.6060000   30.6670000  
H 14.3450000   23.7150000   25.8050000  
H 15.6890000   21.6560000   23.9150000  
H 14.7650000   22.4600000   29.1400000  
