78
011 
C 16.8870000   16.2870000   28.8580000  
C 16.5460000   17.4420000   29.6510000  
C 16.8280000   18.6210000   28.9920000  
C 17.2040000   18.7060000   27.6820000  
C 17.3870000   17.5920000   26.8360000  
C 17.2890000   16.3950000   27.4680000  
C 16.6540000   20.0090000   29.3650000  
C 16.8790000   20.8020000   28.2800000  
N 17.1610000   20.0060000   27.1720000  
O 16.7380000   22.9460000   29.3950000  
C 16.9980000   22.2410000   28.2750000  
O 17.3630000   22.8550000   27.3540000  
O 17.6670000   15.2450000   26.7950000  
O 16.8940000   15.0190000   29.3840000  
H 16.1650000   17.3370000   30.6950000  
H 16.5930000   20.5030000   30.3730000  
H 16.4530000   22.2400000   29.9880000  
H 17.4340000   20.3250000   26.2530000  
H 18.0880000   15.5650000   25.9650000  
H 16.7950000   14.3390000   28.6890000  
C 17.6430000   17.8040000   25.3890000  
C 18.9220000   17.7990000   24.8710000  
C 19.1340000   17.8960000   23.5320000  
C 18.1400000   18.0080000   22.6150000  
C 16.8070000   17.9970000   23.0710000  
C 16.5670000   17.9460000   24.4780000  
C 20.2180000   17.9730000   25.5110000  
C 21.2020000   18.0740000   24.5020000  
N 20.4890000   17.9310000   23.2930000  
O 22.8530000   18.9490000   25.9110000  
C 22.5880000   18.5630000   24.7080000  
O 23.4660000   18.5270000   23.8480000  
O 15.7480000   18.0750000   22.2560000  
O 15.2890000   17.8430000   25.0100000  
H 20.3880000   18.1840000   26.5810000  
H 21.9550000   18.8780000   26.3270000  
H 20.8940000   18.0320000   22.4130000  
H 16.0670000   18.1170000   21.3130000  
H 14.6860000   17.9640000   24.2060000  
C 18.4420000   18.1510000   21.2040000  
C 17.9670000   17.2050000   20.2060000  
C 18.1450000   17.3540000   18.8940000  
C 18.5310000   18.5260000   18.3010000  
C 19.0230000   19.5400000   19.1870000  
C 18.9670000   19.3360000   20.6340000  
C 17.2720000   15.9520000   20.3700000  
C 16.9970000   15.4270000   19.0870000  
N 17.5040000   16.3770000   18.1830000  
O 15.7900000   13.4140000   19.6510000  
C 16.3250000   14.1720000   18.6970000  
O 16.1440000   13.9370000   17.5180000  
O 19.4070000   20.7420000   18.6900000  
O 19.3030000   20.3840000   21.4340000  
H 16.8900000   15.6210000   21.3510000  
H 16.2110000   13.7850000   20.4720000  
H 17.3470000   16.3570000   17.1770000  
H 19.1260000   20.7400000   17.7130000  
H 19.5170000   21.2570000   20.9100000  
C 18.5450000   18.7130000   16.7690000  
C 17.6820000   19.6120000   16.1650000  
C 17.4910000   19.6550000   14.7660000  
C 18.0550000   18.7160000   13.9260000  
C 18.9540000   17.8110000   14.4490000  
C 19.1790000   17.6960000   15.8970000  
C 17.0060000   20.7240000   16.7520000  
C 16.1800000   21.2170000   15.7310000  
N 16.4690000   20.6080000   14.5080000  
O 14.9550000   22.5570000   17.2650000  
C 15.1700000   22.2620000   15.9500000  
O 14.5140000   22.7570000   15.0450000  
O 19.4060000   16.8580000   13.6410000  
O 19.9190000   16.6710000   16.3810000  
H 17.0780000   21.0770000   17.7980000  
H 15.4690000   21.8530000   17.6780000  
H 16.0410000   20.8500000   13.5850000  
H 19.5550000   16.1050000   14.1960000  
H 19.9720000   16.7860000   17.3800000  
H 17.7120000   18.6500000   12.9180000  
