78
011 
C 23.7250000   15.1740000   24.3710000  
C 23.4900000   14.1670000   25.2710000  
C 22.1740000   13.9160000   25.6950000  
C 21.1390000   14.5570000   25.0680000  
C 21.3190000   15.5160000   24.0250000  
C 22.6570000   15.8140000   23.7250000  
C 21.5430000   12.9900000   26.6880000  
C 20.1880000   13.3100000   26.6750000  
N 19.9010000   14.2980000   25.6310000  
O 19.6530000   11.9850000   28.5830000  
C 19.2300000   12.9390000   27.7270000  
O 18.1380000   13.5180000   27.7940000  
O 22.8640000   16.7640000   22.7810000  
O 25.0350000   15.4200000   24.0610000  
H 24.2640000   13.5470000   25.7000000  
H 21.9950000   12.2580000   27.3860000  
H 20.4400000   11.5430000   28.1610000  
H 18.9610000   14.6350000   25.4580000  
H 22.1100000   17.3780000   22.6950000  
H 25.0150000   15.8810000   23.2210000  
C 20.2040000   16.2870000   23.4930000  
C 20.2540000   17.6670000   23.6860000  
C 19.2430000   18.4410000   23.1220000  
C 18.1820000   17.9630000   22.3450000  
C 18.1450000   16.5820000   22.1070000  
C 19.1730000   15.7410000   22.6940000  
C 20.9360000   18.5400000   24.5980000  
C 20.3330000   19.7590000   24.5300000  
N 19.2070000   19.6600000   23.6920000  
O 21.7430000   20.9690000   26.0030000  
C 20.7260000   20.9950000   25.2030000  
O 20.0890000   22.0330000   25.0220000  
O 17.0750000   15.9370000   21.4380000  
O 19.0730000   14.4120000   22.6120000  
H 21.8140000   18.3000000   25.1230000  
H 22.1030000   20.1040000   25.7820000  
H 18.4450000   20.3070000   23.5740000  
H 16.5170000   16.6700000   21.1730000  
H 18.3530000   14.3240000   21.9860000  
C 17.1560000   18.8330000   21.7720000  
C 17.5590000   19.6400000   20.7480000  
C 16.5980000   20.4610000   20.1720000  
C 15.1940000   20.4330000   20.3530000  
C 14.8540000   19.6010000   21.4450000  
C 15.7800000   18.8420000   22.1830000  
C 18.8360000   19.9270000   20.1110000  
C 18.5160000   20.7550000   19.0320000  
N 17.2020000   21.1430000   19.1590000  
O 20.7480000   21.1140000   18.2680000  
C 19.4610000   21.4590000   18.1940000  
O 19.0380000   22.2430000   17.3680000  
O 13.5950000   19.5060000   21.7660000  
O 15.4200000   18.1680000   23.3180000  
H 19.7850000   19.6360000   20.4840000  
H 20.9090000   20.5210000   18.9770000  
H 16.5890000   21.5310000   18.4670000  
H 13.1700000   20.2430000   21.3240000  
H 14.4570000   18.1660000   23.5130000  
C 14.1580000   21.2000000   19.6730000  
C 13.8270000   20.9560000   18.3340000  
C 12.7010000   21.5170000   17.7920000  
C 11.8940000   22.3920000   18.4650000  
C 12.2510000   22.7400000   19.7830000  
C 13.3590000   22.1510000   20.3490000  
C 14.5470000   20.2020000   17.3070000  
C 13.6820000   20.2250000   16.2390000  
N 12.6320000   21.1780000   16.4780000  
O 14.7930000   18.6970000   14.9410000  
C 13.7180000   19.5090000   15.0050000  
O 12.9070000   19.5720000   14.1250000  
O 11.5420000   23.6190000   20.5750000  
O 13.6110000   22.4760000   21.6830000  
H 15.4260000   19.5420000   17.5170000  
H 15.2460000   18.7680000   15.7330000  
H 11.8310000   21.2800000   15.9440000  
H 12.0060000   23.7720000   21.4350000  
H 14.4920000   22.1240000   21.9190000  
H 10.9710000   22.7830000   18.0620000  
