78
011 
C 17.0370000   17.2190000   14.3700000  
C 18.0630000   16.3110000   13.9520000  
C 18.8670000   15.7630000   14.9280000  
C 18.7300000   16.1050000   16.2450000  
C 17.7870000   16.9900000   16.7450000  
C 16.8900000   17.5660000   15.7370000  
C 19.8320000   14.7450000   14.8640000  
C 20.1860000   14.4440000   16.1940000  
N 19.5860000   15.3660000   17.0070000  
O 21.8750000   12.7040000   15.8090000  
C 21.2100000   13.4900000   16.7030000  
O 21.5110000   13.4280000   17.8750000  
O 15.9430000   18.4850000   16.1840000  
O 16.1790000   17.8210000   13.4680000  
H 18.1580000   16.1350000   12.8830000  
H 20.0110000   14.0930000   13.9620000  
H 21.7160000   13.1030000   14.9130000  
H 19.7120000   15.4050000   18.0360000  
H 16.1420000   18.6120000   17.1370000  
H 15.7230000   18.5550000   13.8800000  
C 17.6860000   17.3950000   18.1940000  
C 18.8040000   17.9380000   18.8240000  
C 18.7860000   18.2740000   20.1700000  
C 17.7990000   17.8990000   21.0780000  
C 16.6680000   17.2090000   20.4360000  
C 16.6630000   16.9100000   19.0450000  
C 20.0330000   18.5380000   18.2230000  
C 20.6520000   19.1560000   19.2950000  
N 19.9090000   18.9790000   20.4700000  
O 22.7400000   19.6690000   18.2990000  
C 21.9080000   19.9130000   19.3190000  
O 22.2710000   20.5510000   20.3170000  
O 15.5770000   16.8580000   21.2210000  
O 15.6140000   16.1550000   18.5550000  
H 20.4010000   18.3750000   17.1790000  
H 22.3520000   18.8670000   17.8810000  
H 20.0880000   19.4860000   21.2980000  
H 15.7770000   16.7920000   22.1890000  
H 15.0540000   15.9660000   19.3550000  
C 17.7820000   18.3380000   22.5620000  
C 16.9870000   19.4080000   22.9860000  
C 16.9910000   19.9070000   24.2520000  
C 17.6890000   19.2830000   25.3510000  
C 18.4500000   18.1180000   24.9560000  
C 18.4210000   17.6390000   23.6080000  
C 16.1590000   20.4090000   22.3160000  
C 15.7100000   21.4120000   23.1900000  
N 16.2350000   21.0490000   24.4150000  
O 14.3210000   22.5690000   21.7080000  
C 14.7800000   22.6130000   22.9670000  
O 14.4930000   23.5250000   23.6960000  
O 19.2220000   17.4600000   25.8530000  
O 19.2500000   16.6370000   23.2580000  
H 15.8550000   20.4030000   21.3090000  
H 14.9160000   21.9160000   21.2650000  
H 16.0120000   21.5260000   25.3110000  
H 18.8120000   17.7570000   26.6580000  
H 19.8160000   16.4410000   24.0120000  
C 17.8220000   19.9010000   26.7070000  
C 16.8160000   19.8360000   27.7150000  
C 17.0830000   20.2880000   28.9680000  
C 18.2680000   20.8860000   29.3760000  
C 19.2660000   21.0070000   28.3890000  
C 19.0560000   20.5590000   27.0570000  
C 15.4400000   19.3390000   27.7140000  
C 14.9630000   19.4340000   28.9860000  
N 15.9230000   20.1490000   29.6960000  
O 12.8490000   18.5720000   28.5330000  
C 13.7040000   18.9690000   29.5060000  
O 13.3840000   18.9340000   30.6990000  
O 20.5040000   21.5210000   28.6950000  
O 20.1000000   20.6480000   26.1260000  
H 14.9460000   18.9740000   26.8620000  
H 13.3280000   18.6760000   27.6950000  
H 15.8280000   20.1060000   30.7030000  
H 21.0440000   21.4930000   27.8470000  
H 19.8170000   20.1570000   25.3230000  
H 18.5620000   21.0270000   30.4440000  
