78
011 
C 20.4340000   13.1290000   17.2180000  
C 21.5710000   13.6780000   16.5360000  
C 22.1570000   14.8330000   17.0620000  
C 21.5400000   15.4360000   18.1200000  
C 20.3420000   15.0110000   18.7190000  
C 19.8090000   13.7680000   18.2260000  
C 23.1310000   15.7430000   16.5360000  
C 22.9410000   16.9350000   17.2270000  
N 22.1010000   16.7250000   18.3290000  
O 24.2960000   18.2290000   15.8340000  
C 23.3550000   18.2610000   16.8250000  
O 22.8850000   19.2610000   17.3580000  
O 18.6140000   13.2780000   18.8000000  
O 19.7970000   12.0420000   16.6510000  
H 21.8480000   13.2030000   15.6010000  
H 23.7220000   15.6910000   15.5940000  
H 24.5140000   17.3290000   15.8380000  
H 21.8770000   17.3790000   19.0890000  
H 18.3020000   14.0190000   19.3720000  
H 19.1430000   11.7880000   17.3080000  
C 19.8100000   15.8110000   19.8500000  
C 19.0900000   16.9550000   19.5250000  
C 18.4510000   17.6140000   20.5040000  
C 18.5450000   17.3870000   21.8980000  
C 19.3150000   16.2890000   22.2270000  
C 19.9190000   15.4520000   21.2530000  
C 18.8140000   17.7290000   18.3260000  
C 18.2340000   18.8850000   18.6920000  
N 18.0200000   18.8430000   20.0730000  
O 18.2900000   19.8690000   16.3980000  
C 18.0290000   20.0740000   17.7550000  
O 17.7730000   21.2060000   18.2060000  
O 19.4150000   15.9280000   23.5000000  
O 20.6990000   14.3820000   21.6270000  
H 19.0770000   17.5200000   17.3540000  
H 18.5250000   18.9470000   16.2730000  
H 17.7050000   19.6220000   20.6080000  
H 18.8040000   16.5470000   23.9810000  
H 20.6150000   14.3220000   22.6160000  
C 17.8730000   18.3460000   22.8510000  
C 16.4510000   18.2930000   22.8750000  
C 15.8390000   19.1890000   23.6450000  
C 16.3970000   20.3680000   24.2390000  
C 17.8000000   20.3930000   24.2680000  
C 18.4990000   19.3880000   23.5500000  
C 15.4640000   17.3910000   22.3110000  
C 14.2530000   17.8660000   22.7220000  
N 14.4720000   19.0730000   23.5160000  
O 12.9720000   15.9860000   22.1740000  
C 12.9250000   17.2190000   22.6180000  
O 11.8390000   17.7100000   22.9240000  
O 18.4500000   21.4620000   24.7770000  
O 19.8370000   19.5390000   23.2410000  
H 15.5480000   16.5990000   21.6020000  
H 13.8920000   15.8460000   21.8330000  
H 13.8390000   19.7170000   23.9580000  
H 18.0450000   21.7760000   25.6340000  
H 20.2350000   20.3170000   23.6540000  
C 15.5550000   21.3920000   24.8390000  
C 15.3890000   21.4990000   26.2610000  
C 14.6620000   22.4830000   26.8090000  
C 13.9400000   23.4050000   26.0910000  
C 13.9410000   23.3050000   24.6600000  
C 14.7610000   22.2830000   24.0740000  
C 15.9240000   20.7080000   27.3530000  
C 15.4640000   21.3410000   28.5360000  
N 14.5880000   22.3550000   28.1890000  
O 16.8620000   20.2540000   30.1010000  
C 15.9030000   21.1860000   29.9530000  
O 15.6700000   21.9590000   30.8180000  
O 13.1830000   24.1350000   23.9170000  
O 14.6780000   22.2030000   22.7390000  
H 16.5500000   19.8000000   27.3560000  
H 17.1240000   20.0140000   29.2160000  
H 14.2610000   23.1680000   28.8250000  
H 13.0040000   23.6290000   23.1280000  
H 15.4080000   21.6240000   22.4480000  
H 13.2660000   24.1870000   26.5560000  
