78
011 
C 11.8680000   19.8880000   25.7870000  
C 11.0810000   20.9110000   25.2770000  
C 11.4070000   21.4470000   24.0400000  
C 12.4970000   20.9150000   23.4000000  
C 13.4620000   20.0560000   23.9500000  
C 13.0860000   19.4510000   25.1730000  
C 10.7990000   22.4780000   23.1750000  
C 11.6030000   22.5060000   21.9980000  
N 12.6920000   21.5530000   22.1610000  
O 10.4050000   24.2680000   20.9380000  
C 11.4260000   23.4020000   20.8290000  
O 12.1800000   23.4070000   19.8670000  
O 13.7450000   18.4380000   25.7250000  
O 11.5240000   19.4130000   26.9800000  
H 10.3140000   21.3090000   25.9050000  
H  9.8370000   22.9810000   23.4060000  
H  9.9620000   24.0760000   21.7570000  
H 13.4110000   21.3570000   21.5200000  
H 14.5290000   18.1780000   25.1910000  
H 12.1070000   18.7150000   27.2640000  
C 14.6470000   19.6550000   23.0660000  
C 15.9100000   20.2640000   23.2780000  
C 16.9670000   19.7520000   22.5900000  
C 16.9920000   18.7350000   21.6370000  
C 15.6880000   18.2350000   21.2500000  
C 14.5220000   18.6670000   21.9980000  
C 16.3420000   21.1830000   24.2330000  
C 17.7110000   21.3980000   23.9150000  
N 18.1050000   20.4780000   22.8820000  
O 18.1270000   23.1000000   25.4000000  
C 18.6610000   22.3910000   24.3820000  
O 19.7810000   22.5850000   23.8440000  
O 15.5060000   17.3830000   20.1690000  
O 13.3730000   17.8690000   21.8500000  
H 15.6820000   21.6700000   24.9370000  
H 17.3520000   22.5700000   25.7190000  
H 18.9800000   20.4600000   22.3680000  
H 16.3950000   17.2490000   19.7740000  
H 13.4120000   17.4340000   20.9390000  
C 18.2960000   18.2980000   21.0540000  
C 19.2460000   17.5980000   21.8140000  
C 20.4430000   17.1900000   21.3100000  
C 20.8230000   17.3860000   19.9400000  
C 19.8070000   17.9360000   19.1400000  
C 18.6130000   18.4290000   19.6690000  
C 19.3980000   17.3680000   23.2230000  
C 20.6680000   16.8690000   23.5020000  
N 21.3680000   16.7490000   22.3200000  
O 20.2210000   16.7310000   25.7710000  
C 20.9840000   16.2550000   24.8250000  
O 21.8380000   15.3830000   24.9240000  
O 19.9650000   18.0000000   17.8120000  
O 17.6930000   19.0300000   18.8200000  
H 18.5570000   17.4190000   23.9200000  
H 19.8160000   17.5310000   25.3480000  
H 22.2540000   16.3040000   22.3250000  
H 20.6860000   17.4640000   17.5480000  
H 17.7460000   18.6800000   17.9310000  
C 22.0690000   16.8710000   19.4520000  
C 22.4560000   15.5160000   19.5460000  
C 23.6690000   15.0110000   19.1020000  
C 24.5900000   15.9340000   18.5190000  
C 24.2940000   17.3060000   18.4800000  
C 23.0710000   17.7710000   18.9550000  
C 21.6850000   14.3720000   19.8990000  
C 22.4360000   13.1780000   19.7970000  
N 23.6770000   13.6260000   19.3340000  
O 20.5380000   11.8490000   20.2890000  
C 21.8660000   11.8580000   19.9350000  
O 22.5180000   10.8760000   19.7790000  
O 25.2040000   18.0890000   17.7560000  
O 22.8120000   19.1850000   18.9510000  
H 20.6680000   14.3800000   20.1000000  
H 20.1740000   12.7020000   20.5500000  
H 24.4750000   13.0040000   19.0660000  
H 24.9710000   19.0060000   17.7180000  
H 21.8870000   19.3540000   19.2240000  
H 25.5260000   15.5120000   18.2590000  
