78
011 
C 15.7770000   16.4470000   28.2570000  
C 15.7500000   17.4100000   29.3090000  
C 15.8260000   18.7620000   28.8750000  
C 15.8620000   19.0690000   27.5100000  
C 15.9400000   18.1650000   26.5130000  
C 15.9030000   16.8340000   26.9260000  
C 15.7740000   20.0180000   29.6000000  
C 15.9490000   21.0480000   28.6760000  
N 16.1050000   20.4420000   27.3590000  
O 15.8870000   22.6190000   30.4110000  
C 16.0640000   22.4680000   29.1230000  
O 16.2870000   23.4130000   28.3770000  
O 16.1020000   15.8540000   25.9320000  
O 15.5740000   15.1320000   28.5980000  
H 15.5840000   17.1520000   30.3460000  
H 15.5660000   20.0950000   30.5920000  
H 15.6300000   21.7820000   30.7430000  
H 16.5670000   20.8450000   26.5600000  
H 16.0390000   16.3330000   25.0670000  
H 15.7800000   14.5460000   27.8100000  
C 16.2980000   18.4520000   25.0600000  
C 17.5390000   18.9560000   24.6790000  
C 17.7800000   19.1680000   23.3870000  
C 16.9410000   18.9120000   22.3100000  
C 15.6270000   18.5590000   22.6720000  
C 15.3130000   18.3290000   24.0200000  
C 18.7140000   19.3210000   25.4120000  
C 19.6070000   19.8490000   24.4340000  
N 19.0500000   19.6140000   23.1780000  
O 21.1180000   20.5210000   26.0300000  
C 20.9050000   20.4570000   24.7510000  
O 21.7050000   20.8330000   23.9000000  
O 14.6290000   18.2470000   21.7630000  
O 14.0170000   17.8930000   24.3110000  
H 18.7950000   19.3480000   26.5020000  
H 20.2620000   20.3000000   26.3980000  
H 19.5420000   19.7100000   22.2970000  
H 14.4960000   19.0410000   21.1880000  
H 13.5160000   17.7610000   23.4400000  
C 17.5460000   18.8990000   20.9410000  
C 18.6330000   18.1220000   20.5850000  
C 19.0450000   18.0800000   19.2420000  
C 18.5000000   18.9050000   18.2330000  
C 17.4040000   19.7400000   18.5780000  
C 16.8970000   19.7780000   19.9570000  
C 19.4440000   17.1730000   21.2590000  
C 20.2050000   16.5120000   20.2810000  
N 20.0920000   17.2010000   19.0750000  
O 21.3240000   15.0020000   21.8260000  
C 21.1730000   15.4330000   20.5160000  
O 21.8460000   14.8870000   19.6420000  
O 16.6380000   20.3860000   17.6240000  
O 15.8870000   20.5210000   20.2880000  
H 19.5600000   17.0010000   22.3020000  
H 20.7220000   15.5440000   22.4010000  
H 20.4990000   17.0310000   18.1280000  
H 16.9350000   20.2520000   16.6970000  
H 15.7140000   20.9660000   19.4690000  
C 18.9920000   18.8600000   16.8350000  
C 18.9010000   17.7080000   16.0140000  
C 19.3500000   17.6890000   14.7300000  
C 19.8490000   18.8560000   14.1530000  
C 19.8530000   20.0440000   14.9220000  
C 19.4610000   20.0030000   16.2510000  
C 18.1780000   16.4910000   16.2740000  
C 18.1320000   15.8390000   15.0570000  
N 18.8910000   16.5330000   14.1080000  
O 17.1260000   14.0050000   15.9680000  
C 17.5180000   14.5300000   14.8100000  
O 17.2730000   14.1590000   13.6990000  
O 20.6150000   21.0940000   14.4460000  
O 19.6730000   21.0940000   17.0180000  
H 17.7290000   16.1680000   17.2320000  
H 17.6580000   14.4900000   16.5440000  
H 19.0710000   16.2540000   13.1720000  
H 20.3550000   21.8500000   15.0200000  
H 19.1770000   21.0280000   17.8750000  
H 20.3000000   18.7890000   13.1880000  
