78
011 
C 21.9490000   12.1390000   23.1730000  
C 23.2690000   12.5420000   23.0780000  
C 23.5210000   13.9180000   23.1130000  
C 22.5130000   14.8290000   23.1000000  
C 21.1710000   14.5510000   23.1550000  
C 20.9260000   13.1340000   23.0950000  
C 24.7290000   14.6670000   23.0020000  
C 24.3570000   15.9740000   23.0150000  
N 22.9800000   16.0650000   22.9500000  
O 26.5780000   16.8170000   22.6160000  
C 25.3080000   17.0850000   22.6900000  
O 24.9430000   18.1900000   22.5810000  
O 19.6000000   12.7560000   23.0020000  
O 21.5860000   10.8540000   23.1990000  
H 24.0930000   11.7850000   23.1040000  
H 25.7250000   14.2330000   23.0910000  
H 26.6610000   15.8310000   22.7720000  
H 22.4980000   16.9100000   22.7660000  
H 19.1060000   13.5380000   23.2230000  
H 20.6270000   10.7680000   23.0950000  
C 20.1490000   15.6290000   22.9140000  
C 20.1580000   16.4170000   21.7080000  
C 19.1770000   17.3010000   21.4830000  
C 18.1550000   17.6630000   22.3940000  
C 18.0900000   16.9200000   23.5870000  
C 19.0660000   15.8710000   23.8120000  
C 21.1260000   16.6300000   20.6330000  
C 20.6340000   17.6770000   19.8950000  
N 19.4090000   18.0610000   20.3530000  
O 22.7210000   17.8620000   18.8330000  
C 21.4800000   18.3020000   18.9400000  
O 21.1920000   19.1370000   18.1960000  
O 17.0910000   17.1150000   24.4860000  
O 18.9680000   15.1210000   24.9510000  
H 21.9530000   16.0100000   20.4510000  
H 22.8070000   17.2460000   19.6010000  
H 18.8980000   18.8900000   20.0680000  
H 16.5600000   17.8330000   24.1220000  
H 18.2610000   15.4530000   25.5030000  
C 17.2830000   18.8360000   22.1620000  
C 15.9090000   18.6210000   21.7580000  
C 15.2200000   19.7000000   21.3290000  
C 15.7080000   21.0310000   21.0960000  
C 17.0320000   21.2200000   21.5060000  
C 17.8400000   20.1660000   22.0100000  
C 15.0470000   17.4240000   21.7000000  
C 13.7930000   17.9760000   21.4280000  
N 13.9160000   19.3650000   21.1430000  
O 12.6320000   15.8540000   21.6580000  
C 12.5110000   17.1900000   21.3930000  
O 11.4640000   17.7050000   21.1670000  
O 17.6170000   22.3760000   21.3000000  
O 19.1660000   20.3880000   22.1390000  
H 15.2070000   16.3910000   22.0450000  
H 13.5690000   15.7400000   22.0170000  
H 13.1770000   19.9540000   20.8250000  
H 17.1470000   22.8570000   20.5720000  
H 19.3480000   21.4160000   22.0110000  
C 14.8300000   22.1250000   20.5590000  
C 13.7740000   22.6110000   21.3630000  
C 12.8570000   23.4550000   20.8850000  
C 12.9860000   23.9980000   19.6170000  
C 14.0210000   23.5660000   18.7880000  
C 14.9420000   22.6600000   19.2410000  
C 13.4070000   22.2410000   22.6940000  
C 12.2030000   22.9320000   22.9660000  
N 11.8730000   23.6960000   21.8070000  
O 11.7950000   22.2240000   25.2470000  
C 11.4690000   23.0430000   24.2220000  
O 10.5770000   23.8900000   24.4700000  
O 14.0500000   24.0130000   17.4470000  
O 16.0250000   22.2830000   18.4810000  
H 14.0040000   21.7010000   23.4620000  
H 12.3940000   21.6100000   24.8210000  
H 11.0780000   24.3020000   21.7180000  
H 14.7030000   23.4420000   16.9650000  
H 16.3670000   21.4620000   18.8220000  
H 12.3000000   24.7580000   19.2770000  
