78
011 
C 17.1760000   15.5770000   28.6700000  
C 17.4760000   16.4770000   29.7270000  
C 17.7160000   17.8330000   29.3550000  
C 17.6130000   18.1810000   28.0470000  
C 17.3290000   17.2580000   26.9820000  
C 17.1120000   15.9520000   27.3090000  
C 18.0120000   19.0480000   30.0950000  
C 18.0670000   20.0580000   29.1100000  
N 17.7620000   19.5410000   27.8270000  
O 18.4200000   21.7600000   30.6910000  
C 18.1450000   21.5440000   29.4050000  
O 18.0990000   22.4590000   28.6000000  
O 17.0330000   14.9510000   26.3770000  
O 17.0680000   14.2250000   29.0250000  
H 17.6150000   16.1130000   30.7160000  
H 18.0890000   19.1090000   31.1620000  
H 18.3290000   20.8460000   31.0390000  
H 17.5950000   19.9860000   26.9420000  
H 16.4460000   15.2510000   25.6490000  
H 16.8470000   13.7030000   28.2630000  
C 17.2880000   17.5840000   25.5240000  
C 18.4070000   18.2130000   24.8480000  
C 18.3700000   18.3550000   23.5270000  
C 17.2920000   18.2090000   22.6710000  
C 16.1500000   17.6200000   23.2820000  
C 16.1610000   17.2350000   24.6730000  
C 19.6740000   18.7400000   25.3110000  
C 20.3980000   19.1190000   24.1750000  
N 19.4940000   18.9460000   23.1030000  
O 22.3340000   19.9720000   25.2710000  
C 21.6510000   19.8560000   24.0790000  
O 22.1790000   20.2570000   23.0420000  
O 15.0380000   17.4170000   22.4930000  
O 15.0770000   16.6600000   25.2180000  
H 19.8890000   19.0960000   26.3270000  
H 21.5500000   19.7200000   25.8400000  
H 19.7290000   19.2510000   22.1770000  
H 15.3180000   17.7500000   21.5650000  
H 14.4840000   16.4160000   24.5490000  
C 17.2290000   18.6310000   21.2300000  
C 17.9350000   17.9470000   20.2400000  
C 17.9910000   18.3980000   18.9670000  
C 17.3510000   19.5260000   18.4660000  
C 16.4720000   20.1610000   19.3780000  
C 16.5280000   19.7410000   20.7830000  
C 18.6730000   16.7500000   20.2310000  
C 19.2800000   16.5770000   18.9810000  
N 18.8410000   17.6780000   18.2440000  
O 20.5040000   14.5220000   19.3380000  
C 20.1410000   15.4760000   18.4650000  
O 20.4150000   15.3560000   17.3060000  
O 15.4860000   21.1520000   19.0630000  
O 15.8570000   20.4390000   21.7660000  
H 18.9020000   16.1450000   21.1380000  
H 19.9830000   14.7100000   20.1420000  
H 18.9480000   17.6910000   17.2360000  
H 15.6150000   21.5290000   18.1530000  
H 15.4010000   21.0910000   21.2260000  
C 17.5180000   19.9970000   17.0450000  
C 17.0590000   19.2530000   15.9480000  
C 17.3480000   19.5860000   14.6440000  
C 18.1230000   20.7230000   14.3040000  
C 18.4940000   21.5700000   15.3950000  
C 18.2850000   21.1450000   16.6980000  
C 16.4100000   17.9270000   15.9530000  
C 16.2910000   17.5930000   14.6010000  
N 16.9070000   18.5760000   13.7650000  
O 15.1930000   15.5190000   14.9790000  
C 15.6900000   16.3630000   14.0690000  
O 15.6160000   16.1310000   12.8920000  
O 19.1850000   22.6830000   15.0920000  
O 18.9980000   21.8390000   17.7040000  
H 16.0850000   17.3530000   16.7960000  
H 15.2450000   16.0580000   15.7480000  
H 17.0810000   18.5560000   12.7340000  
H 19.4060000   23.1770000   15.8550000  
H 19.2510000   21.4570000   18.5500000  
H 18.2860000   21.0200000   13.2810000  
