78
011 
C 19.6260000   14.2450000   28.0350000  
C 20.0680000   15.1980000   29.0310000  
C 19.9470000   16.5850000   28.7140000  
C 19.5340000   16.9500000   27.4790000  
C 18.9780000   16.0340000   26.4900000  
C 18.9730000   14.6290000   26.8750000  
C 20.1440000   17.7580000   29.5200000  
C 19.8130000   18.8400000   28.7090000  
N 19.5180000   18.3610000   27.3670000  
O 20.1510000   20.5680000   30.3130000  
C 20.0110000   20.2650000   29.0070000  
O 20.0590000   21.1060000   28.0890000  
O 18.5000000   13.6760000   26.0780000  
O 19.6650000   12.9690000   28.4140000  
H 20.4140000   14.8630000   29.9960000  
H 20.4150000   17.8190000   30.5520000  
H 20.2310000   19.6520000   30.7070000  
H 19.3040000   18.9220000   26.5350000  
H 17.7580000   13.9960000   25.5240000  
H 19.5450000   12.4320000   27.5840000  
C 18.3830000   16.5840000   25.2020000  
C 19.2630000   17.3430000   24.4280000  
C 18.7530000   17.9350000   23.2840000  
C 17.4520000   17.9400000   22.8140000  
C 16.5830000   17.1370000   23.5280000  
C 17.0560000   16.4750000   24.7170000  
C 20.6630000   17.6710000   24.5070000  
C 20.9050000   18.6650000   23.5480000  
N 19.7850000   18.7200000   22.7070000  
O 23.0900000   19.2710000   24.1350000  
C 22.1090000   19.4000000   23.3070000  
O 22.1680000   20.1220000   22.3580000  
O 15.3030000   17.0510000   23.1190000  
O 16.1000000   15.8230000   25.4480000  
H 21.3560000   17.3470000   25.2630000  
H 22.8560000   18.6090000   24.8370000  
H 19.8210000   19.0740000   21.7530000  
H 15.1310000   17.6350000   22.2700000  
H 15.2170000   16.2240000   25.2130000  
C 17.0760000   18.6900000   21.5480000  
C 17.2900000   18.1770000   20.2920000  
C 17.0030000   18.8850000   19.1760000  
C 16.5590000   20.1710000   19.1270000  
C 16.3250000   20.7590000   20.4110000  
C 16.4890000   19.9930000   21.6110000  
C 17.7040000   16.8790000   19.7600000  
C 17.6970000   16.9210000   18.3660000  
N 17.1060000   18.1370000   18.0040000  
O 18.4150000   14.6210000   17.9680000  
C 18.0930000   15.8090000   17.4360000  
O 17.9920000   15.8490000   16.2700000  
O 15.9790000   22.0770000   20.4920000  
O 16.3160000   20.5610000   22.8480000  
H 17.9920000   16.0480000   20.3730000  
H 18.4420000   14.8940000   18.8760000  
H 16.9180000   18.5030000   17.1130000  
H 16.1650000   22.4510000   19.6210000  
H 15.5600000   21.1420000   22.8540000  
C 16.4590000   20.8960000   17.8290000  
C 15.6570000   20.4780000   16.6890000  
C 15.7260000   21.0400000   15.4370000  
C 16.4750000   22.2220000   15.2320000  
C 17.3710000   22.5320000   16.2190000  
C 17.4590000   21.8790000   17.4430000  
C 14.7200000   19.3910000   16.5670000  
C 14.2040000   19.4120000   15.2490000  
N 14.8010000   20.4720000   14.5590000  
O 12.8390000   17.5420000   15.4550000  
C 13.1920000   18.5430000   14.6720000  
O 12.7620000   18.7260000   13.5430000  
O 18.0500000   23.6720000   16.0760000  
O 18.3190000   22.3710000   18.3710000  
H 14.3730000   18.7880000   17.4150000  
H 13.4810000   17.5520000   16.2170000  
H 14.5770000   20.7880000   13.6070000  
H 18.6690000   23.8010000   16.8480000  
H 18.2360000   21.7270000   19.0860000  
H 16.5930000   22.6570000   14.2480000  
