78
011 
C 21.7360000   12.4930000   19.6400000  
C 23.0220000   12.4400000   20.2630000  
C 23.2140000   13.2760000   21.3290000  
C 22.2930000   14.2540000   21.6890000  
C 21.1250000   14.4690000   20.9610000  
C 20.8740000   13.5980000   19.8880000  
C 24.4250000   13.4690000   22.1270000  
C 24.1240000   14.6690000   22.8800000  
N 22.8860000   15.1540000   22.5670000  
O 26.2910000   14.6060000   23.8250000  
C 25.1520000   15.3330000   23.7390000  
O 24.9920000   16.3520000   24.3070000  
O 19.7790000   13.7090000   19.0880000  
O 21.4220000   11.5620000   18.6270000  
H 23.7910000   11.7900000   19.9590000  
H 25.3750000   12.8630000   22.1000000  
H 25.9970000   13.7200000   23.4050000  
H 22.4640000   16.0370000   22.9330000  
H 19.2930000   14.5330000   19.3210000  
H 20.6800000   11.9600000   18.0990000  
C 20.2300000   15.6020000   21.3240000  
C 19.7900000   16.6230000   20.3980000  
C 18.9700000   17.6510000   20.7950000  
C 18.3640000   17.7880000   22.0740000  
C 18.7310000   16.7460000   22.9350000  
C 19.6460000   15.7190000   22.5590000  
C 20.4280000   17.0250000   19.1660000  
C 19.9570000   18.3280000   18.8620000  
N 19.0130000   18.6790000   19.8470000  
O 21.3300000   18.6110000   16.9190000  
C 20.2370000   19.1040000   17.6080000  
O 19.5470000   20.0220000   17.2370000  
O 18.2120000   16.8750000   24.2130000  
O 20.1650000   14.9640000   23.5580000  
H 21.0690000   16.4830000   18.5090000  
H 21.6750000   17.8220000   17.4840000  
H 18.5750000   19.5630000   19.8700000  
H 17.7950000   17.7680000   24.4230000  
H 19.7790000   15.4630000   24.3740000  
C 17.4450000   18.8500000   22.3640000  
C 16.0960000   18.9490000   21.8530000  
C 15.3260000   20.0560000   22.1210000  
C 15.8230000   21.2190000   22.7280000  
C 17.1230000   21.1440000   23.2280000  
C 17.9040000   19.9940000   23.0560000  
C 15.3040000   18.0350000   21.0150000  
C 14.1480000   18.6860000   20.6930000  
N 14.1060000   19.8740000   21.5040000  
O 13.3890000   16.8240000   19.4760000  
C 13.0850000   18.1340000   19.8280000  
O 12.0310000   18.7290000   19.6230000  
O 17.5650000   22.1490000   24.0430000  
O 19.1420000   19.9980000   23.6240000  
H 15.6160000   17.1290000   20.5180000  
H 14.3040000   16.7170000   19.7320000  
H 13.2800000   20.4350000   21.6330000  
H 16.7130000   22.7020000   24.1500000  
H 19.2610000   20.9350000   23.8980000  
C 14.9960000   22.4400000   22.8700000  
C 13.7680000   22.4490000   23.4520000  
C 13.0660000   23.6650000   23.5050000  
C 13.4810000   24.8350000   22.8360000  
C 14.6720000   24.7590000   22.1010000  
C 15.4510000   23.5830000   22.1810000  
C 13.0110000   21.4870000   24.1830000  
C 11.9220000   22.1620000   24.6470000  
N 11.8920000   23.5010000   24.1820000  
O 11.1720000   20.2260000   25.7670000  
C 10.8930000   21.5240000   25.4980000  
O  9.8610000   22.0380000   25.8410000  
O 15.1670000   25.8080000   21.3500000  
O 16.6720000   23.5510000   21.5020000  
H 13.2700000   20.4600000   24.3280000  
H 11.8680000   20.0950000   25.1720000  
H 11.2390000   24.2300000   24.5170000  
H 16.0730000   25.5050000   21.1570000  
H 16.9990000   22.6370000   21.7240000  
H 12.9000000   25.7350000   22.8070000  
