78
011 
C 24.0400000   14.5570000   21.2310000  
C 24.0330000   13.4050000   22.0540000  
C 22.8480000   13.0710000   22.6440000  
C 21.6960000   13.7510000   22.4510000  
C 21.6180000   15.0200000   21.8000000  
C 22.8230000   15.3330000   21.1100000  
C 22.5960000   11.9860000   23.6000000  
C 21.3770000   12.3420000   24.2410000  
N 20.7850000   13.3180000   23.4330000  
O 21.6190000   10.7110000   26.0230000  
C 20.7930000   11.6550000   25.4210000  
O 19.6580000   11.9040000   25.8140000  
O 22.8320000   16.3800000   20.2500000  
O 25.2400000   14.7630000   20.5000000  
H 24.9500000   12.8200000   22.1550000  
H 23.3670000   11.2360000   23.8560000  
H 22.5230000   10.8470000   25.5750000  
H 19.8780000   13.6710000   23.4190000  
H 21.9970000   16.9170000   20.3370000  
H 25.2050000   15.5700000   20.0590000  
C 20.4180000   15.8340000   21.8540000  
C 20.6010000   17.1770000   22.2810000  
C 19.4990000   18.0160000   22.3760000  
C 18.1660000   17.7620000   21.9920000  
C 18.0040000   16.3860000   21.5870000  
C 19.0840000   15.4260000   21.5580000  
C 21.6710000   17.9540000   22.8500000  
C 21.1930000   19.2540000   23.0500000  
N 19.8120000   19.3280000   22.7240000  
O 23.2820000   20.1700000   23.9520000  
C 22.0030000   20.3920000   23.5020000  
O 21.5800000   21.5380000   23.5170000  
O 16.7320000   15.9290000   21.3550000  
O 18.7650000   14.1050000   21.3420000  
H 22.6440000   17.5250000   22.8990000  
H 23.5660000   19.2250000   24.0370000  
H 19.3090000   20.1850000   22.8750000  
H 16.0760000   16.6730000   21.3160000  
H 17.9460000   14.2010000   20.7880000  
C 17.0620000   18.7530000   22.0270000  
C 17.0030000   19.7980000   21.0960000  
C 16.1280000   20.8300000   21.2580000  
C 15.1250000   20.8420000   22.2510000  
C 15.1890000   19.7810000   23.2200000  
C 16.1490000   18.7520000   23.0960000  
C 17.8170000   20.0860000   20.0180000  
C 17.2260000   21.2490000   19.4530000  
N 16.1460000   21.6810000   20.1940000  
O 19.0820000   21.7430000   18.2660000  
C 17.8400000   22.1570000   18.5030000  
O 17.3660000   23.2120000   18.0810000  
O 14.2640000   19.6070000   24.2380000  
O 16.1520000   17.7670000   24.0280000  
H 18.8220000   19.8350000   19.8180000  
H 19.1560000   20.8070000   18.4710000  
H 15.5870000   22.4440000   19.9970000  
H 13.4120000   20.0560000   23.9720000  
H 15.3660000   17.8080000   24.5720000  
C 13.9970000   21.7990000   22.2220000  
C 13.1750000   21.8170000   21.0820000  
C 12.0450000   22.6360000   21.0330000  
C 11.6930000   23.5260000   22.0020000  
C 12.4980000   23.5190000   23.1600000  
C 13.5900000   22.6280000   23.3040000  
C 13.1110000   20.9260000   19.9580000  
C 12.1370000   21.4490000   19.1700000  
N 11.4330000   22.4660000   19.8670000  
O 12.5450000   19.9240000   17.3870000  
C 11.8110000   21.0400000   17.7900000  
O 10.8940000   21.5710000   17.1270000  
O 12.1910000   24.3630000   24.2130000  
O 14.2520000   22.5580000   24.4910000  
H 13.7310000   19.9740000   19.7960000  
H 13.0580000   19.5970000   18.1580000  
H 10.6260000   22.9660000   19.5230000  
H 12.7870000   24.1930000   24.9340000  
H 15.0410000   21.9360000   24.4400000  
H 10.9330000   24.2010000   21.8560000  
