78
011 
C 21.1970000   12.0370000   24.0740000  
C 22.4380000   12.4210000   24.6420000  
C 22.8000000   13.7750000   24.6940000  
C 21.9560000   14.6960000   24.2120000  
C 20.6290000   14.4560000   23.8320000  
C 20.2740000   13.0730000   23.7340000  
C 23.8660000   14.4510000   25.3550000  
C 23.6870000   15.8370000   25.0610000  
N 22.5210000   15.9630000   24.3260000  
O 25.6570000   16.5560000   26.2430000  
C 24.6880000   16.8720000   25.3790000  
O 24.7590000   17.9200000   24.8350000  
O 19.0330000   12.7190000   23.3240000  
O 20.8800000   10.6960000   23.9290000  
H 23.0620000   11.6770000   25.1370000  
H 24.6230000   13.9480000   25.9460000  
H 25.4550000   15.7710000   26.6840000  
H 22.2880000   16.8500000   23.8760000  
H 18.4870000   13.5250000   23.2900000  
H 19.9250000   10.5210000   23.7960000  
C 19.7730000   15.5910000   23.3210000  
C 20.0530000   16.3950000   22.2080000  
C 19.2280000   17.4350000   21.8560000  
C 18.1620000   17.8920000   22.6310000  
C 17.8670000   17.1070000   23.7990000  
C 18.6990000   15.9690000   24.1030000  
C 21.0810000   16.3170000   21.2340000  
C 20.7670000   17.3300000   20.2440000  
N 19.6560000   18.0100000   20.6850000  
O 22.7400000   16.9290000   18.9940000  
C 21.5760000   17.6960000   19.0630000  
O 21.2220000   18.5440000   18.2740000  
O 16.6820000   17.2790000   24.5130000  
O 18.3210000   15.2150000   25.1510000  
H 21.7920000   15.5320000   21.3080000  
H 22.8640000   16.3970000   19.7650000  
H 19.2300000   18.7590000   20.2690000  
H 16.4540000   18.1270000   24.1210000  
H 17.7570000   15.7900000   25.7540000  
C 17.3740000   19.0830000   22.2110000  
C 16.6400000   19.1650000   20.9830000  
C 15.7680000   20.1740000   20.7390000  
C 15.6500000   21.3560000   21.5300000  
C 16.3700000   21.3360000   22.7160000  
C 17.1380000   20.1980000   23.1090000  
C 16.7590000   18.4780000   19.7680000  
C 16.0170000   19.0980000   18.7890000  
N 15.4340000   20.2130000   19.3730000  
O 16.6410000   17.5030000   17.0800000  
C 15.9150000   18.6010000   17.3750000  
O 15.1370000   19.0650000   16.5990000  
O 16.3150000   22.3630000   23.5180000  
O 17.6280000   20.1260000   24.4090000  
H 17.3650000   17.6110000   19.5890000  
H 17.2900000   17.2970000   17.7210000  
H 14.8710000   20.8520000   18.8240000  
H 15.9570000   23.1990000   23.1340000  
H 17.4250000   20.9660000   24.8930000  
C 14.8270000   22.5330000   21.0880000  
C 13.5310000   22.3350000   20.6780000  
C 12.7480000   23.3520000   20.1510000  
C 13.2550000   24.6300000   19.9900000  
C 14.5590000   24.8740000   20.4210000  
C 15.3810000   23.8650000   20.9730000  
C 12.7150000   21.1530000   20.6190000  
C 11.4530000   21.4820000   20.2140000  
N 11.4770000   22.8760000   20.0250000  
O 10.3960000   19.3360000   20.6080000  
C 10.2760000   20.5810000   20.0550000  
O  9.2490000   20.9330000   19.5290000  
O 14.9970000   26.0840000   20.2030000  
O 16.7420000   24.0540000   21.1920000  
H 13.1000000   20.2120000   20.8620000  
H 11.1180000   19.2750000   21.2060000  
H 10.7610000   23.5640000   19.7420000  
H 15.8260000   26.2810000   20.6670000  
H 17.0680000   23.2980000   21.6690000  
H 12.6280000   25.3840000   19.5530000  
