78
011 
C 12.3150000   19.7960000   26.4670000  
C 11.5300000   20.8380000   26.1730000  
C 11.8520000   21.4640000   24.9760000  
C 12.7350000   20.9230000   24.1220000  
C 13.4990000   19.8200000   24.3610000  
C 13.2580000   19.1610000   25.6040000  
C 11.3010000   22.6680000   24.3780000  
C 12.0310000   22.8670000   23.2240000  
N 12.8520000   21.7180000   22.9830000  
O 11.0360000   24.7990000   22.6110000  
C 12.0390000   24.0050000   22.2800000  
O 12.6080000   24.0490000   21.2470000  
O 14.0150000   18.0330000   25.9340000  
O 12.2200000   19.3310000   27.7170000  
H 10.8040000   21.2580000   26.9110000  
H 10.5170000   23.2970000   24.7710000  
H 10.6310000   24.5280000   23.4180000  
H 13.4100000   21.5580000   22.1750000  
H 14.4610000   17.8130000   25.0620000  
H 12.5060000   18.4040000   27.7360000  
C 14.6600000   19.4130000   23.5300000  
C 15.9290000   19.8700000   23.7650000  
C 17.0170000   19.5860000   23.0310000  
C 17.0930000   18.6600000   21.9670000  
C 15.8140000   18.0840000   21.7470000  
C 14.6050000   18.4450000   22.4580000  
C 16.2700000   20.8550000   24.8040000  
C 17.6430000   21.0720000   24.6930000  
N 18.0600000   20.3340000   23.5460000  
O 17.7490000   22.6370000   26.3490000  
C 18.4470000   22.0920000   25.3770000  
O 19.5700000   22.4710000   25.0650000  
O 15.6560000   17.3090000   20.6040000  
O 13.3600000   17.8920000   22.1060000  
H 15.6540000   21.3430000   25.5150000  
H 16.9160000   22.1310000   26.3460000  
H 18.9200000   20.5370000   23.0680000  
H 16.4590000   17.0100000   20.1730000  
H 13.6790000   17.2810000   21.4450000  
C 18.2960000   18.3620000   21.0220000  
C 19.4020000   17.7130000   21.5930000  
C 20.4580000   17.3260000   20.8150000  
C 20.5200000   17.4860000   19.3980000  
C 19.4090000   18.1150000   18.8120000  
C 18.3480000   18.6050000   19.6160000  
C 19.6320000   17.1960000   22.9060000  
C 20.8470000   16.4650000   22.8750000  
N 21.3060000   16.5210000   21.5370000  
O 20.8870000   15.7700000   25.1390000  
C 21.6250000   15.8690000   23.9700000  
O 22.7750000   15.4660000   23.9040000  
O 19.2780000   18.1480000   17.4860000  
O 17.3170000   19.2370000   18.9570000  
H 18.9910000   17.2810000   23.8210000  
H 19.9940000   16.1880000   24.9470000  
H 22.2310000   16.1940000   21.2610000  
H 20.0910000   17.7790000   17.1500000  
H 17.5700000   19.2700000   18.0550000  
C 21.6930000   16.9830000   18.6680000  
C 21.9840000   15.6070000   18.4690000  
C 23.0750000   15.2230000   17.8130000  
C 23.9200000   16.2240000   17.2670000  
C 23.6830000   17.6140000   17.4140000  
C 22.4640000   17.9510000   18.0540000  
C 21.3140000   14.4830000   18.9230000  
C 22.0600000   13.3970000   18.4640000  
N 23.1140000   13.8560000   17.7710000  
O 20.5900000   11.7140000   19.3830000  
C 21.8020000   11.9720000   18.8050000  
O 22.6140000   11.1270000   18.5010000  
O 24.4930000   18.5120000   16.7130000  
O 22.1720000   19.3230000   18.1640000  
H 20.4670000   14.5610000   19.5680000  
H 20.1110000   12.5300000   19.1310000  
H 23.8720000   13.3030000   17.4270000  
H 24.0670000   19.4070000   16.8650000  
H 21.3070000   19.3930000   18.6610000  
H 24.8350000   15.8670000   16.8520000  
