78
011 
C 14.5430000   17.5990000   28.6650000  
C 14.1400000   18.8950000   29.0740000  
C 14.4770000   20.0070000   28.2720000  
C 15.1490000   19.8070000   27.0900000  
C 15.4850000   18.5380000   26.5470000  
C 15.1500000   17.4440000   27.3680000  
C 14.3000000   21.4240000   28.4260000  
C 14.7630000   22.0110000   27.2870000  
N 15.3640000   21.0090000   26.4800000  
O 14.2000000   24.3070000   27.9360000  
C 14.8190000   23.4690000   27.0440000  
O 15.4620000   23.9880000   26.1330000  
O 15.5410000   16.2530000   26.9350000  
O 14.1930000   16.5160000   29.4380000  
H 13.6180000   19.0450000   30.0030000  
H 13.9160000   21.8960000   29.2570000  
H 13.6690000   23.6870000   28.4450000  
H 15.8840000   21.2390000   25.6170000  
H 15.7320000   16.4090000   26.0180000  
H 14.5410000   15.7520000   28.8820000  
C 16.1930000   18.3340000   25.1780000  
C 17.4950000   18.7970000   24.9490000  
C 17.9500000   18.8040000   23.7040000  
C 17.2400000   18.3220000   22.5630000  
C 15.8750000   17.7940000   22.7570000  
C 15.3910000   17.8750000   24.0650000  
C 18.4720000   19.5330000   25.7180000  
C 19.5050000   19.9380000   24.8730000  
N 19.2720000   19.3060000   23.5910000  
O 20.5900000   21.3700000   26.3850000  
C 20.7270000   20.8020000   25.1890000  
O 21.6840000   20.9360000   24.4660000  
O 15.1540000   17.1610000   21.7540000  
O 14.1870000   17.3440000   24.2660000  
H 18.3100000   19.8780000   26.7300000  
H 20.0070000   20.8140000   26.8960000  
H 19.8650000   19.2130000   22.7910000  
H 15.7690000   17.1410000   21.0250000  
H 13.7400000   17.2140000   23.3310000  
C 17.7900000   18.3030000   21.1450000  
C 18.8750000   17.5430000   20.7600000  
C 19.2830000   17.6120000   19.4680000  
C 18.7440000   18.4730000   18.5020000  
C 17.5850000   19.2720000   18.8940000  
C 17.1750000   19.2170000   20.2620000  
C 19.7150000   16.5450000   21.3680000  
C 20.4870000   15.9800000   20.3060000  
N 20.3190000   16.7190000   19.2050000  
O 21.5320000   14.2560000   21.5310000  
C 21.4400000   14.8880000   20.4090000  
O 22.2000000   14.6250000   19.4580000  
O 17.0210000   20.1210000   17.9800000  
O 16.1330000   19.9930000   20.5450000  
H 19.7070000   16.2570000   22.4320000  
H 20.7690000   14.6410000   22.0210000  
H 20.6940000   16.4830000   18.2550000  
H 17.5530000   20.3750000   17.2090000  
H 15.8690000   20.5520000   19.7640000  
C 19.3690000   18.5360000   17.1760000  
C 19.3520000   17.4920000   16.2100000  
C 20.0330000   17.5960000   15.0090000  
C 20.8670000   18.6950000   14.7670000  
C 20.8700000   19.7830000   15.6730000  
C 20.1950000   19.6450000   16.8550000  
C 18.6770000   16.2020000   16.2240000  
C 18.9720000   15.5980000   15.0140000  
N 19.7690000   16.4610000   14.2350000  
O 17.6650000   13.6430000   15.5480000  
C 18.4850000   14.2170000   14.6350000  
O 18.7960000   13.6340000   13.6500000  
O 21.5910000   20.8740000   15.3180000  
O 20.1350000   20.7400000   17.6660000  
H 18.1310000   15.7460000   17.0350000  
H 17.4240000   14.2860000   16.1820000  
H 20.1220000   16.2220000   13.2700000  
H 21.5800000   21.5210000   16.1180000  
H 19.4190000   20.5090000   18.3400000  
H 21.6040000   18.7000000   13.8870000  
