78
011 
C 20.2230000   13.0750000   17.9250000  
C 21.5930000   12.7980000   17.9860000  
C 22.3810000   13.4050000   18.9940000  
C 21.7690000   14.3500000   19.7860000  
C 20.4930000   14.8080000   19.7150000  
C 19.6820000   14.0880000   18.8380000  
C 23.7470000   13.4460000   19.3130000  
C 23.9940000   14.3540000   20.2910000  
N 22.7120000   14.9070000   20.6010000  
O 26.3900000   14.1900000   20.3260000  
C 25.2640000   14.8140000   20.8400000  
O 25.3510000   15.7630000   21.6240000  
O 18.3960000   14.4720000   18.6720000  
O 19.4490000   12.3870000   17.0650000  
H 22.0140000   12.1210000   17.2610000  
H 24.5780000   12.9250000   18.7890000  
H 25.9930000   13.5280000   19.6420000  
H 22.6380000   15.7130000   21.2020000  
H 18.2350000   15.1230000   19.3750000  
H 18.6520000   12.8970000   17.0380000  
C 20.0240000   16.0000000   20.5600000  
C 19.4750000   17.0910000   19.8500000  
C 19.0160000   18.1730000   20.4790000  
C 18.9650000   18.3790000   21.8350000  
C 19.5780000   17.3080000   22.5920000  
C 20.1000000   16.1380000   21.9350000  
C 19.2900000   17.3440000   18.4020000  
C 18.7240000   18.6200000   18.3070000  
N 18.4920000   19.0890000   19.6010000  
O 18.4030000   18.6200000   15.8930000  
C 18.2110000   19.2780000   17.0770000  
O 17.6000000   20.3450000   17.1410000  
O 19.5420000   17.3880000   23.9150000  
O 20.6020000   15.2090000   22.7160000  
H 19.6210000   16.7590000   17.5730000  
H 19.0670000   17.9620000   16.0810000  
H 18.1230000   20.0340000   19.8800000  
H 19.2870000   18.3810000   24.0160000  
H 20.4930000   15.4940000   23.5950000  
C 18.1670000   19.3760000   22.4840000  
C 16.7850000   19.3070000   22.2190000  
C 16.0090000   20.2960000   22.8020000  
C 16.4620000   21.3480000   23.5840000  
C 17.8690000   21.4340000   23.7570000  
C 18.7200000   20.4350000   23.2690000  
C 15.9380000   18.3960000   21.4740000  
C 14.6900000   18.9340000   21.6170000  
N 14.7080000   20.0880000   22.4320000  
O 13.4860000   17.3680000   20.3160000  
C 13.3800000   18.3960000   21.1380000  
O 12.3670000   18.9470000   21.4860000  
O 18.4290000   22.4420000   24.4810000  
O 20.0240000   20.4020000   23.6450000  
H 16.2180000   17.5150000   20.9750000  
H 14.4230000   17.1820000   20.1440000  
H 13.9390000   20.6900000   22.7390000  
H 17.8620000   22.8070000   25.1730000  
H 20.2210000   21.2420000   24.0500000  
C 15.4390000   22.3100000   24.1550000  
C 14.4970000   21.8640000   25.1260000  
C 13.5550000   22.7360000   25.5410000  
C 13.4300000   24.0320000   25.0660000  
C 14.3860000   24.4510000   24.1230000  
C 15.2910000   23.5770000   23.5910000  
C 14.2480000   20.6660000   25.8660000  
C 13.1330000   20.8640000   26.6500000  
N 12.7710000   22.2210000   26.5180000  
O 12.9310000   18.5320000   27.3150000  
C 12.5140000   19.8360000   27.5120000  
O 11.5650000   20.1030000   28.2650000  
O 14.4260000   25.7600000   23.8120000  
O 16.3010000   23.9700000   22.7880000  
H 14.8230000   19.7440000   25.8400000  
H 13.1850000   18.4020000   26.4410000  
H 11.9330000   22.6870000   26.8810000  
H 15.1760000   25.9880000   23.2140000  
H 16.9070000   23.2740000   22.9100000  
H 12.6980000   24.7490000   25.5170000  
