78
011 
C 10.8980000   20.4070000   19.2140000  
C 11.0700000   20.8150000   17.8830000  
C 12.3530000   20.6700000   17.3350000  
C 13.3760000   20.1790000   18.0340000  
C 13.3150000   19.8300000   19.3440000  
C 12.0120000   19.8910000   19.9260000  
C 12.8580000   20.7980000   16.0130000  
C 14.1660000   20.2680000   16.0150000  
N 14.5430000   20.0190000   17.2940000  
O 14.2670000   19.8720000   13.6710000  
C 14.9250000   19.8900000   14.8160000  
O 16.0900000   19.6090000   14.8340000  
O 11.8140000   19.6980000   21.2770000  
O  9.6630000   20.4580000   19.8810000  
H 10.2280000   21.2290000   17.2710000  
H 12.2720000   21.1830000   15.1740000  
H 13.4130000   20.0630000   13.9810000  
H 15.4920000   19.8700000   17.6730000  
H 12.6940000   19.3380000   21.5520000  
H  9.6970000   20.2770000   20.8590000  
C 14.5820000   19.2770000   20.0430000  
C 15.7100000   20.1100000   20.1690000  
C 16.7840000   19.6380000   20.9470000  
C 16.9140000   18.3140000   21.4520000  
C 15.7870000   17.5110000   21.2930000  
C 14.5950000   17.9430000   20.6210000  
C 15.9880000   21.4810000   19.9050000  
C 17.2480000   21.7170000   20.5120000  
N 17.7660000   20.5380000   21.0870000  
O 17.2270000   24.0580000   20.0480000  
C 17.9390000   22.9910000   20.5160000  
O 18.9960000   23.1850000   21.0920000  
O 15.7670000   16.2110000   21.7240000  
O 13.5410000   17.0540000   20.5280000  
H 15.3200000   22.1650000   19.3800000  
H 16.4320000   23.7130000   19.6130000  
H 18.6490000   20.3890000   21.5410000  
H 16.6520000   15.8600000   21.7810000  
H 13.9570000   16.2460000   20.8500000  
C 18.2130000   17.8010000   22.0520000  
C 18.6840000   18.5290000   23.1710000  
C 19.7370000   18.0200000   23.9570000  
C 20.6090000   16.9780000   23.5010000  
C 20.2360000   16.3660000   22.2620000  
C 18.9790000   16.6530000   21.6480000  
C 18.0940000   19.5150000   24.0440000  
C 19.0070000   19.7540000   25.0950000  
N 20.0440000   18.8510000   24.9880000  
O 18.1140000   21.7880000   26.0730000  
C 18.9980000   20.7310000   26.1440000  
O 19.8660000   20.7830000   27.0270000  
O 21.0990000   15.5140000   21.6660000  
O 18.6420000   16.0400000   20.5140000  
H 17.0400000   19.8460000   24.0790000  
H 17.7410000   21.6480000   25.1680000  
H 20.9150000   18.9520000   25.3960000  
H 21.7620000   15.1720000   22.2850000  
H 19.3730000   15.4550000   20.3220000  
C 21.8980000   16.7500000   24.2010000  
C 22.1660000   15.5740000   24.9190000  
C 23.3970000   15.4410000   25.5140000  
C 24.3910000   16.3790000   25.5490000  
C 24.1150000   17.5770000   24.8990000  
C 22.8920000   17.7940000   24.2340000  
C 21.4560000   14.3330000   25.1550000  
C 22.2520000   13.5260000   25.9610000  
N 23.5200000   14.1480000   26.1020000  
O 20.7010000   11.8460000   26.4940000  
C 21.9850000   12.2000000   26.6020000  
O 22.8280000   11.5940000   27.2680000  
O 25.0850000   18.5910000   24.8690000  
O 22.8000000   19.0000000   23.5760000  
H 20.4090000   14.1630000   24.8670000  
H 20.2420000   12.4690000   25.9080000  
H 24.3410000   13.6420000   26.4480000  
H 24.6790000   19.4130000   24.4640000  
H 21.9990000   18.9380000   22.9310000  
H 25.3580000   16.1500000   26.0070000  
