78
011 
C 10.8850000   20.1630000   24.2240000  
C 11.0210000   21.4270000   24.9280000  
C 12.2120000   22.1330000   24.7400000  
C 13.3080000   21.5390000   24.2370000  
C 13.3420000   20.2610000   23.6020000  
C 12.0450000   19.6230000   23.5400000  
C 12.6730000   23.4110000   25.3070000  
C 14.0150000   23.5390000   25.0650000  
N 14.3370000   22.4230000   24.2630000  
O 14.4010000   25.6380000   26.1590000  
C 14.9350000   24.6090000   25.4960000  
O 16.1570000   24.5950000   25.2480000  
O 11.8090000   18.3820000   22.9030000  
O  9.7380000   19.4480000   24.4130000  
H 10.1750000   21.7780000   25.5180000  
H 12.1410000   24.0680000   25.9860000  
H 13.4560000   25.4690000   26.1580000  
H 15.2470000   22.1330000   23.9780000  
H 12.3720000   18.3010000   22.0970000  
H  9.8210000   18.6970000   23.7160000  
C 14.5650000   19.7660000   23.0000000  
C 15.7510000   19.5930000   23.7940000  
C 16.8940000   19.1400000   23.2090000  
C 17.0780000   18.7800000   21.8620000  
C 15.8710000   18.9900000   21.0600000  
C 14.6340000   19.3610000   21.6660000  
C 16.1140000   19.8470000   25.1770000  
C 17.4730000   19.6290000   25.2880000  
N 17.9460000   19.2100000   24.0450000  
O 17.9450000   20.2620000   27.6190000  
C 18.3860000   19.6850000   26.4160000  
O 19.5510000   19.3200000   26.3770000  
O 15.9100000   18.8800000   19.6490000  
O 13.5190000   19.2730000   20.8700000  
H 15.4350000   20.1270000   25.9840000  
H 16.9850000   20.4890000   27.5400000  
H 18.9040000   18.8440000   23.9040000  
H 16.8330000   18.7180000   19.3540000  
H 13.7680000   19.2280000   19.8850000  
C 18.4150000   18.4550000   21.3320000  
C 18.9420000   17.1470000   21.6410000  
C 20.0560000   16.7280000   20.8940000  
C 20.7810000   17.5670000   19.9990000  
C 20.3420000   18.8670000   19.8100000  
C 19.1680000   19.3430000   20.5010000  
C 18.6320000   16.0560000   22.4270000  
C 19.5020000   15.0000000   22.1680000  
N 20.3630000   15.4060000   21.1850000  
O 18.7510000   13.5800000   23.9510000  
C 19.5790000   13.7520000   22.8940000  
O 20.3550000   12.8490000   22.5340000  
O 21.0040000   19.8240000   19.0970000  
O 18.6970000   20.6030000   20.3310000  
H 17.9940000   16.0230000   23.2750000  
H 18.6750000   14.4730000   24.2810000  
H 20.9720000   14.7830000   20.6570000  
H 21.5710000   19.4140000   18.4120000  
H 19.5770000   21.0290000   20.2830000  
C 22.0360000   17.0600000   19.3100000  
C 21.9520000   15.9510000   18.4730000  
C 23.0080000   15.5250000   17.7860000  
C 24.2120000   16.1650000   17.7350000  
C 24.4140000   17.2160000   18.6900000  
C 23.3420000   17.6230000   19.4880000  
C 20.7740000   15.3370000   17.9060000  
C 21.1970000   14.3720000   17.0100000  
N 22.5900000   14.5360000   16.9420000  
O 19.0500000   13.6330000   16.4580000  
C 20.3270000   13.5130000   16.2120000  
O 20.7390000   12.8380000   15.3480000  
O 25.6720000   17.7770000   18.7710000  
O 23.5460000   18.6800000   20.4000000  
H 19.7530000   15.6800000   18.1240000  
H 18.9760000   14.2840000   17.1830000  
H 23.1150000   14.0890000   16.2240000  
H 25.5230000   18.6810000   18.9160000  
H 22.7620000   18.9540000   20.9190000  
H 25.0280000   15.8280000   17.0910000  
