78
011 
C 19.5130000   15.0000000   15.2180000  
C 20.5380000   14.0890000   15.5750000  
C 20.9000000   13.9630000   16.8950000  
C 20.3870000   14.7910000   17.8270000  
C 19.3280000   15.7310000   17.6340000  
C 18.9440000   15.8240000   16.2830000  
C 21.9300000   13.1710000   17.5970000  
C 21.7040000   13.4140000   18.9550000  
N 20.8550000   14.5350000   19.0610000  
O 22.9730000   11.5950000   19.6850000  
C 22.2720000   12.6770000   20.0610000  
O 22.2410000   13.0480000   21.2150000  
O 18.0700000   16.8430000   15.8600000  
O 19.2260000   15.2040000   13.8810000  
H 20.9150000   13.5010000   14.7580000  
H 22.6460000   12.4060000   17.1860000  
H 22.9940000   11.4730000   18.7200000  
H 20.5490000   15.0110000   19.9390000  
H 17.6630000   17.1460000   16.7370000  
H 18.7930000   16.0570000   13.7560000  
C 18.7960000   16.4610000   18.7740000  
C 19.5120000   17.5630000   19.3070000  
C 19.1870000   18.1280000   20.5400000  
C 18.1820000   17.6370000   21.4210000  
C 17.5300000   16.4570000   20.8980000  
C 17.7560000   15.9780000   19.6020000  
C 20.7200000   18.2670000   18.8430000  
C 20.9300000   19.2340000   19.8860000  
N 19.9880000   19.1730000   20.8690000  
O 22.7680000   20.2850000   18.6600000  
C 21.8890000   20.3830000   19.7260000  
O 21.9550000   21.3650000   20.4810000  
O 16.4690000   15.9990000   21.5830000  
O 17.0270000   14.9150000   19.1940000  
H 21.2400000   18.1550000   17.9590000  
H 22.4060000   19.6040000   18.0500000  
H 19.8270000   19.8100000   21.5920000  
H 16.4590000   16.2450000   22.5160000  
H 16.5070000   14.7500000   19.9540000  
C 17.7770000   18.3200000   22.6890000  
C 17.2220000   19.5940000   22.5610000  
C 16.7190000   20.2060000   23.6530000  
C 16.7020000   19.7310000   24.9680000  
C 17.2140000   18.3940000   25.1060000  
C 17.7100000   17.7080000   23.9880000  
C 17.2470000   20.6710000   21.5090000  
C 16.5430000   21.7400000   22.1200000  
N 16.3220000   21.4910000   23.4620000  
O 16.6300000   23.0110000   20.0520000  
C 16.2620000   22.9720000   21.3390000  
O 15.8130000   23.9640000   21.8750000  
O 17.0080000   17.8120000   26.2940000  
O 18.2740000   16.4950000   24.2790000  
H 17.6730000   20.6370000   20.5700000  
H 17.0300000   22.1220000   19.8170000  
H 15.8680000   22.0680000   24.1750000  
H 16.3920000   18.3620000   26.8110000  
H 18.2040000   16.3330000   25.2400000  
C 16.1570000   20.5740000   26.1360000  
C 14.7770000   20.9560000   26.2570000  
C 14.3430000   21.6260000   27.3730000  
C 15.1950000   22.0320000   28.4110000  
C 16.5350000   21.6180000   28.3580000  
C 17.0670000   21.0580000   27.1880000  
C 13.6310000   20.7260000   25.3430000  
C 12.5860000   21.4920000   25.8810000  
N 13.0250000   22.0430000   27.0980000  
O 10.8670000   20.9530000   24.1860000  
C 11.2420000   21.6470000   25.2570000  
O 10.4120000   22.4200000   25.7810000  
O 17.4410000   21.9550000   29.3310000  
O 18.4290000   20.8640000   27.0760000  
H 13.6760000   20.1250000   24.4230000  
H 11.7010000   20.6360000   23.9090000  
H 12.4710000   22.6120000   27.6460000  
H 18.3230000   21.6470000   28.9570000  
H 18.5710000   20.3940000   26.2460000  
H 14.8000000   22.4940000   29.3250000  
