78
011 
C 20.0660000   13.2950000   17.2950000  
C 21.0260000   13.9060000   16.4090000  
C 21.5970000   15.1180000   16.7530000  
C 21.1650000   15.8090000   17.7910000  
C 20.0750000   15.4210000   18.5600000  
C 19.4710000   14.1570000   18.2920000  
C 22.4220000   15.9410000   15.9040000  
C 22.4490000   17.1550000   16.5720000  
N 21.7840000   17.0240000   17.7940000  
O 23.5010000   18.2980000   14.7640000  
C 23.0710000   18.3300000   16.0450000  
O 23.1410000   19.3350000   16.7940000  
O 18.2600000   13.7750000   18.9280000  
O 19.6320000   12.0210000   17.0960000  
H 21.3350000   13.4040000   15.5210000  
H 22.7300000   15.6630000   14.9080000  
H 23.3960000   17.3930000   14.5830000  
H 21.7470000   17.6700000   18.5650000  
H 18.0270000   14.4580000   19.5870000  
H 18.8950000   11.7850000   17.7470000  
C 19.5070000   16.3210000   19.5850000  
C 18.4880000   17.2170000   19.2210000  
C 17.8980000   17.9670000   20.1880000  
C 18.4150000   18.2070000   21.4710000  
C 19.4730000   17.2570000   21.7820000  
C 19.9850000   16.3400000   20.9060000  
C 17.8970000   17.7230000   17.9760000  
C 17.0020000   18.7550000   18.2720000  
N 17.0820000   18.9400000   19.6660000  
O 16.4190000   19.1630000   15.9140000  
C 16.2390000   19.5430000   17.2710000  
O 15.4260000   20.3620000   17.6060000  
O 19.9970000   17.4020000   23.0350000  
O 21.0150000   15.4740000   21.2440000  
H 18.1490000   17.3730000   16.9600000  
H 16.8930000   18.3410000   16.0480000  
H 16.5720000   19.6480000   20.2010000  
H 19.8370000   18.3960000   23.1740000  
H 21.3070000   15.7130000   22.1180000  
C 17.8300000   19.1170000   22.4320000  
C 16.4930000   19.0070000   22.7640000  
C 15.9310000   19.8100000   23.6960000  
C 16.6460000   20.8900000   24.3150000  
C 17.9590000   21.0590000   23.8990000  
C 18.5390000   20.1540000   23.0230000  
C 15.4760000   18.0930000   22.3810000  
C 14.2690000   18.4820000   23.0070000  
N 14.5660000   19.5200000   23.8930000  
O 12.6680000   16.7970000   22.1490000  
C 12.9590000   17.8840000   22.9790000  
O 12.1000000   18.2160000   23.6960000  
O 18.6670000   22.0340000   24.6190000  
O 19.9190000   20.3120000   22.8260000  
H 15.6420000   17.1950000   21.8120000  
H 13.4980000   16.4950000   21.6910000  
H 13.9820000   19.9800000   24.5750000  
H 18.1800000   22.1670000   25.4780000  
H 20.2370000   20.9790000   23.4860000  
C 16.1000000   21.5110000   25.5390000  
C 16.1860000   20.7450000   26.7330000  
C 15.5730000   21.1170000   27.9140000  
C 14.7370000   22.2600000   27.9490000  
C 14.4700000   23.0040000   26.7710000  
C 15.1840000   22.5700000   25.5950000  
C 17.0270000   19.6220000   27.0680000  
C 16.8650000   19.4020000   28.4310000  
N 16.0120000   20.3120000   28.9200000  
O 18.3580000   17.5960000   28.5010000  
C 17.5860000   18.4190000   29.2570000  
O 17.5350000   18.3590000   30.4720000  
O 13.7020000   24.1420000   26.8020000  
O 15.0440000   23.2530000   24.4790000  
H 17.4950000   18.9450000   26.4440000  
H 18.0390000   17.8850000   27.6460000  
H 15.6600000   20.2700000   29.8740000  
H 13.5770000   24.3970000   25.8960000  
H 15.6010000   22.8070000   23.8470000  
H 14.2690000   22.5670000   28.8830000  
