78
011 
C 13.9670000   18.1860000   15.3160000  
C 14.8980000   18.1070000   14.2870000  
C 16.2380000   17.8500000   14.6450000  
C 16.5070000   17.7610000   15.9950000  
C 15.6010000   17.8180000   17.1030000  
C 14.2770000   18.0290000   16.6800000  
C 17.5040000   17.5170000   13.9500000  
C 18.4920000   17.3090000   14.9130000  
N 17.8480000   17.4160000   16.1450000  
O 20.1200000   16.6410000   13.3320000  
C 19.8550000   16.9120000   14.6020000  
O 20.7040000   16.7000000   15.4140000  
O 13.2460000   18.0190000   17.5550000  
O 12.6570000   18.4910000   15.0120000  
H 14.6350000   18.1930000   13.2680000  
H 17.7030000   17.3920000   12.8420000  
H 19.2770000   16.7870000   12.8460000  
H 18.2680000   17.1430000   17.0310000  
H 13.6590000   17.7950000   18.3840000  
H 12.1280000   18.4720000   15.8210000  
C 16.0180000   17.7990000   18.5290000  
C 17.0630000   18.6610000   18.9660000  
C 17.5300000   18.6150000   20.2590000  
C 17.0530000   17.7700000   21.2530000  
C 16.1100000   16.8500000   20.8420000  
C 15.5460000   16.9120000   19.5100000  
C 17.9680000   19.5730000   18.2750000  
C 18.9200000   20.0190000   19.2180000  
N 18.6790000   19.4080000   20.4190000  
O 20.2050000   21.5730000   17.8460000  
C 20.0390000   20.9970000   19.0450000  
O 20.7160000   21.3440000   19.9800000  
O 15.6350000   15.9530000   21.7930000  
O 14.5530000   16.1060000   19.1120000  
H 17.8500000   20.0060000   17.2570000  
H 19.3990000   21.4180000   17.3140000  
H 19.0480000   19.6820000   21.2680000  
H 16.1290000   16.0130000   22.6330000  
H 14.2410000   15.4680000   19.7860000  
C 17.8100000   17.8180000   22.5410000  
C 17.6010000   18.9700000   23.3260000  
C 18.2810000   19.0940000   24.4850000  
C 19.2950000   18.2230000   25.0080000  
C 19.5130000   17.1050000   24.1590000  
C 18.7540000   16.8640000   22.9820000  
C 16.6810000   20.0710000   23.2820000  
C 16.8190000   20.8150000   24.4400000  
N 17.9600000   20.2390000   25.1680000  
O 15.1480000   22.3610000   23.8940000  
C 16.0050000   21.9980000   24.8400000  
O 16.1850000   22.6300000   25.8620000  
O 20.3940000   16.1690000   24.6040000  
O 18.9410000   15.7670000   22.1890000  
H 15.9700000   20.2290000   22.4680000  
H 15.2500000   21.6780000   23.1650000  
H 18.4160000   20.5180000   26.0030000  
H 20.6360000   16.4760000   25.5200000  
H 19.6760000   15.3500000   22.7280000  
C 19.9870000   18.4590000   26.3470000  
C 19.3220000   18.2770000   27.5960000  
C 19.9730000   18.5160000   28.7810000  
C 21.3200000   18.9400000   28.8680000  
C 22.1080000   18.9000000   27.7120000  
C 21.4510000   18.7140000   26.4570000  
C 17.9940000   17.8880000   27.8690000  
C 17.7600000   18.0640000   29.2160000  
N 19.0380000   18.3310000   29.7990000  
O 15.4320000   17.6070000   29.1480000  
C 16.4640000   17.9360000   29.9220000  
O 16.3230000   18.1370000   31.1150000  
O 23.4700000   19.1090000   27.8900000  
O 22.2800000   18.9980000   25.3920000  
H 17.2880000   17.5560000   27.1240000  
H 15.8170000   17.6070000   28.2530000  
H 19.2950000   18.4760000   30.7750000  
H 23.9460000   19.0730000   27.0970000  
H 21.7830000   18.8270000   24.5370000  
H 21.7490000   19.1770000   29.8640000  
