78
011 
C 20.6990000   12.5370000   24.0490000  
C 21.8810000   12.5230000   24.7950000  
C 22.2010000   13.7410000   25.4520000  
C 21.6000000   14.8850000   25.1510000  
C 20.3460000   14.9510000   24.4470000  
C 19.9020000   13.6940000   23.9250000  
C 23.4350000   14.0790000   26.1600000  
C 23.4680000   15.5090000   26.1550000  
N 22.2490000   15.9750000   25.6520000  
O 25.5370000   15.7880000   27.1810000  
C 24.5660000   16.4200000   26.5220000  
O 24.6270000   17.5560000   26.1750000  
O 18.7880000   13.7180000   23.1520000  
O 20.3360000   11.3760000   23.3650000  
H 22.5050000   11.6060000   24.8520000  
H 24.1440000   13.3740000   26.5820000  
H 25.0830000   14.9490000   27.3750000  
H 21.9890000   16.9540000   25.5650000  
H 18.7070000   14.6710000   22.9400000  
H 19.4620000   11.4270000   22.9670000  
C 19.5810000   16.2120000   24.1560000  
C 20.0980000   17.0110000   23.1610000  
C 19.3480000   18.0560000   22.7110000  
C 18.0290000   18.4230000   23.1640000  
C 17.5880000   17.7320000   24.3100000  
C 18.3110000   16.5730000   24.7700000  
C 21.2700000   17.0080000   22.3490000  
C 21.1160000   17.8970000   21.3140000  
N 19.8600000   18.6010000   21.5450000  
O 23.1340000   17.5280000   20.1350000  
C 21.9410000   18.0930000   20.0790000  
O 21.5120000   18.8280000   19.2080000  
O 16.4600000   18.0660000   24.9670000  
O 17.7890000   15.8450000   25.7680000  
H 22.0500000   16.2390000   22.3550000  
H 22.9290000   16.8480000   20.7530000  
H 19.6000000   19.4370000   21.1000000  
H 15.8800000   18.4470000   24.3070000  
H 16.9640000   16.3520000   26.1650000  
C 17.1430000   19.3850000   22.3980000  
C 16.7620000   19.0740000   21.0830000  
C 16.0070000   19.9470000   20.4020000  
C 15.7080000   21.2680000   20.7890000  
C 16.1670000   21.5840000   22.1070000  
C 16.9870000   20.6630000   22.8350000  
C 17.0010000   17.9220000   20.1950000  
C 16.4810000   18.2710000   18.9450000  
N 15.8760000   19.5590000   19.0830000  
O 17.5540000   16.4860000   17.7580000  
C 16.7170000   17.5470000   17.6450000  
O 16.2250000   17.8150000   16.5870000  
O 15.8520000   22.7550000   22.6950000  
O 17.3040000   20.9780000   24.1270000  
H 17.5290000   17.0360000   20.4810000  
H 17.7260000   16.4420000   18.7090000  
H 15.3730000   20.0880000   18.3130000  
H 15.3690000   23.3960000   22.0780000  
H 17.0970000   21.9370000   24.1990000  
C 14.9060000   22.2120000   19.9300000  
C 13.6430000   21.8550000   19.4980000  
C 13.0080000   22.7240000   18.6550000  
C 13.5030000   24.0270000   18.3970000  
C 14.6500000   24.4520000   18.9600000  
C 15.3300000   23.5550000   19.7580000  
C 12.8310000   20.6850000   19.5910000  
C 11.6340000   20.9690000   18.9110000  
N 11.8110000   22.1910000   18.3030000  
O 10.4740000   19.0180000   19.5650000  
C 10.4010000   20.1790000   18.8970000  
O  9.3760000   20.5500000   18.3020000  
O 15.1050000   25.6560000   18.6290000  
O 16.4460000   24.0350000   20.3020000  
H 13.1610000   19.7570000   20.0730000  
H 11.4050000   18.9270000   19.7070000  
H 11.0050000   22.6870000   17.8720000  
H 16.0780000   25.5530000   18.4930000  
H 16.8350000   23.2840000   20.7990000  
H 12.9580000   24.6960000   17.7120000  
