78
011 
C 17.5020000   16.0960000   14.8810000  
C 18.5730000   15.2830000   14.5530000  
C 19.4340000   14.9340000   15.5650000  
C 19.3880000   15.3670000   16.8410000  
C 18.3610000   16.2270000   17.2510000  
C 17.3570000   16.5040000   16.2750000  
C 20.5200000   14.0360000   15.5940000  
C 21.0910000   13.9870000   16.8420000  
N 20.3360000   14.7480000   17.6620000  
O 22.7410000   12.3900000   16.1740000  
C 22.2100000   13.0700000   17.2180000  
O 22.5220000   12.8930000   18.4140000  
O 16.2680000   17.2780000   16.7170000  
O 16.5510000   16.5070000   13.9970000  
H 18.7980000   14.9270000   13.5490000  
H 20.9220000   13.4710000   14.7230000  
H 22.6930000   12.9590000   15.3320000  
H 20.5220000   14.8480000   18.6700000  
H 16.1920000   17.5550000   17.6790000  
H 15.7500000   16.6560000   14.4630000  
C 18.2460000   16.7580000   18.6080000  
C 18.9180000   17.9360000   19.0340000  
C 18.7680000   18.5300000   20.2780000  
C 18.0090000   17.8490000   21.2860000  
C 17.2790000   16.6550000   20.8660000  
C 17.3730000   16.1300000   19.5340000  
C 19.7240000   18.9450000   18.3240000  
C 20.0470000   19.9840000   19.1820000  
N 19.4360000   19.7240000   20.3920000  
O 21.2290000   21.2990000   17.6150000  
C 20.8850000   21.1800000   18.8930000  
O 21.0620000   22.0740000   19.7280000  
O 16.5130000   15.9590000   21.7830000  
O 16.6820000   14.9350000   19.2750000  
H 20.0830000   18.8800000   17.2640000  
H 20.7830000   20.6180000   17.0940000  
H 19.5870000   20.2740000   21.2490000  
H 16.5640000   16.5460000   22.5800000  
H 16.4150000   14.4500000   20.0960000  
C 17.9030000   18.3260000   22.7280000  
C 17.4220000   19.5910000   23.0430000  
C 17.3700000   20.0560000   24.3470000  
C 17.7650000   19.3180000   25.5000000  
C 18.2600000   18.0540000   25.1930000  
C 18.3490000   17.5740000   23.8150000  
C 16.9150000   20.6510000   22.2110000  
C 16.5800000   21.6690000   23.0660000  
N 16.8870000   21.3220000   24.4070000  
O 16.0640000   23.0670000   21.2730000  
C 16.2210000   23.0400000   22.6450000  
O 16.1110000   24.0240000   23.3720000  
O 18.4910000   17.1290000   26.1830000  
O 18.8510000   16.3160000   23.6430000  
H 16.9460000   20.6410000   21.1300000  
H 16.1480000   22.1510000   20.9720000  
H 16.9880000   21.8750000   25.2650000  
H 18.3760000   17.5990000   27.0270000  
H 19.4360000   16.0800000   24.3820000  
C 17.4270000   19.7780000   26.8620000  
C 16.0890000   20.1560000   27.1790000  
C 15.7720000   20.6560000   28.4480000  
C 16.7400000   20.7910000   29.4540000  
C 18.0340000   20.4540000   29.1110000  
C 18.4240000   19.9860000   27.8380000  
C 14.8380000   20.1170000   26.4250000  
C 13.8360000   20.6820000   27.2460000  
N 14.3620000   20.8860000   28.5720000  
O 12.1810000   20.7470000   25.6040000  
C 12.4400000   20.9160000   26.8930000  
O 11.5840000   21.2100000   27.7400000  
O 19.0420000   20.6410000   30.0170000  
O 19.6790000   19.6230000   27.5370000  
H 14.7060000   19.6400000   25.4920000  
H 13.0920000   20.8750000   25.2320000  
H 13.8950000   20.8930000   29.4750000  
H 19.9140000   20.3760000   29.6400000  
H 19.7180000   19.5500000   26.5480000  
H 16.5770000   21.3200000   30.3960000  
