78
011 
C 22.4840000   14.6160000   17.6090000  
C 22.8880000   13.4090000   18.0580000  
C 22.5350000   13.0540000   19.3570000  
C 21.6430000   13.8550000   20.0480000  
C 21.1960000   15.0770000   19.6910000  
C 21.6820000   15.4720000   18.3990000  
C 22.8130000   11.9390000   20.1820000  
C 22.0590000   12.1290000   21.3470000  
N 21.2440000   13.2850000   21.2130000  
O 22.9090000   10.2060000   22.5990000  
C 22.0840000   11.2630000   22.6280000  
O 21.4660000   11.5700000   23.6670000  
O 21.1810000   16.5820000   17.7690000  
O 22.8750000   15.0360000   16.3650000  
H 23.5610000   12.7480000   17.5120000  
H 23.4740000   11.0970000   19.9790000  
H 23.4540000   10.2810000   21.7940000  
H 20.5060000   13.5620000   21.8660000  
H 20.3380000   16.7530000   18.2490000  
H 22.6600000   16.0090000   16.2000000  
C 20.1700000   15.8490000   20.4690000  
C 20.4690000   17.1710000   20.9470000  
C 19.5220000   17.9130000   21.6260000  
C 18.1760000   17.5710000   21.8900000  
C 17.8780000   16.2390000   21.4350000  
C 18.8710000   15.4160000   20.7650000  
C 21.7410000   17.8510000   21.0830000  
C 21.4480000   19.1040000   21.6190000  
N 20.0600000   19.1670000   21.8710000  
O 23.6900000   19.9220000   21.7380000  
C 22.3720000   20.2250000   21.9570000  
O 22.0100000   21.3400000   22.1630000  
O 16.6020000   15.7660000   21.6120000  
O 18.4220000   14.3210000   20.1620000  
H 22.7040000   17.5920000   20.7830000  
H 23.6990000   19.0130000   21.4070000  
H 19.6390000   19.9180000   22.3970000  
H 16.0930000   16.3740000   22.1550000  
H 17.4340000   14.3680000   20.3120000  
C 17.2110000   18.5590000   22.5410000  
C 16.9420000   19.7930000   21.9000000  
C 16.0070000   20.5710000   22.4750000  
C 15.4240000   20.3760000   23.7730000  
C 15.6610000   19.0810000   24.3660000  
C 16.6280000   18.2170000   23.7690000  
C 17.4070000   20.3650000   20.6970000  
C 16.7950000   21.6150000   20.6680000  
N 16.0430000   21.8170000   21.8810000  
O 17.8970000   22.2450000   18.6650000  
C 16.9080000   22.5490000   19.5260000  
O 16.2510000   23.5070000   19.2960000  
O 15.0230000   18.8130000   25.5740000  
O 16.9320000   16.9780000   24.3900000  
H 17.9330000   19.9170000   19.9240000  
H 18.2860000   21.5050000   19.1710000  
H 15.2790000   22.4870000   22.0080000  
H 14.2990000   19.4700000   25.7400000  
H 16.3600000   16.9640000   25.1700000  
C 14.5880000   21.4580000   24.3710000  
C 13.3740000   21.9060000   23.7590000  
C 12.6260000   22.9850000   24.3130000  
C 13.0490000   23.6880000   25.4480000  
C 14.2530000   23.2400000   25.9890000  
C 15.1520000   22.2410000   25.4370000  
C 12.5700000   21.4180000   22.6100000  
C 11.3930000   22.1700000   22.5880000  
N 11.4820000   23.1880000   23.6050000  
O 10.2710000   21.2400000   20.6780000  
C 10.2480000   22.0950000   21.6480000  
O  9.2640000   22.7660000   21.7980000  
O 14.5510000   23.7710000   27.1620000  
O 16.4180000   21.9160000   26.0010000  
H 12.8670000   20.5660000   21.9430000  
H 11.1590000   20.8130000   20.9350000  
H 10.7470000   23.8360000   23.8550000  
H 15.4960000   23.5700000   27.4410000  
H 16.9820000   21.5260000   25.2840000  
H 12.4280000   24.4200000   26.0510000  
