78
011 
C 11.3990000   21.2880000   23.8870000  
C 10.5630000   21.7930000   22.8450000  
C 11.0270000   21.5650000   21.5470000  
C 12.2020000   20.8920000   21.3280000  
C 13.0600000   20.3260000   22.2890000  
C 12.6080000   20.5520000   23.6040000  
C 10.4300000   21.8240000   20.2990000  
C 11.2930000   21.3040000   19.3170000  
N 12.4400000   20.7680000   19.9690000  
O 10.0870000   22.0540000   17.4100000  
C 11.1590000   21.3740000   17.8620000  
O 11.9510000   20.9070000   17.0970000  
O 13.4070000   20.2510000   24.6520000  
O 11.0490000   21.5110000   25.2370000  
H  9.6130000   22.2110000   23.1070000  
H  9.5850000   22.4550000   20.1450000  
H  9.7070000   22.4540000   18.2380000  
H 13.2590000   20.3460000   19.5150000  
H 14.1570000   19.8770000   24.1590000  
H 11.8030000   21.0740000   25.7080000  
C 14.4660000   19.8310000   21.9390000  
C 15.5930000   20.5140000   22.3970000  
C 16.9070000   20.1130000   22.0570000  
C 17.2460000   18.9560000   21.3380000  
C 16.1270000   18.1830000   20.9040000  
C 14.7500000   18.6900000   21.1720000  
C 15.8100000   21.6890000   23.2200000  
C 17.1700000   21.8520000   23.4280000  
N 17.8360000   20.9290000   22.6440000  
O 16.8650000   23.3630000   25.2760000  
C 17.7840000   22.7050000   24.5430000  
O 18.9490000   22.6490000   24.8510000  
O 16.2950000   17.1030000   20.0550000  
O 13.7820000   17.9310000   20.6520000  
H 15.0630000   22.2430000   23.7100000  
H 16.0040000   23.0350000   24.9810000  
H 18.8630000   20.8310000   22.6290000  
H 17.1880000   16.8640000   19.6810000  
H 14.1280000   17.1610000   20.1650000  
C 18.6520000   18.4760000   21.1910000  
C 19.3560000   18.0510000   22.3490000  
C 20.6390000   17.6540000   22.2750000  
C 21.3880000   17.4850000   21.1230000  
C 20.6800000   17.8430000   19.8990000  
C 19.3210000   18.3730000   19.8770000  
C 18.9620000   17.8340000   23.7320000  
C 20.0590000   17.3100000   24.4040000  
N 21.0390000   17.0720000   23.4630000  
O 19.0070000   17.0940000   26.5200000  
C 20.2280000   17.0900000   25.8560000  
O 21.3040000   16.7390000   26.4190000  
O 21.3110000   17.4790000   18.7030000  
O 18.7580000   18.7470000   18.7260000  
H 18.0110000   18.0350000   24.1680000  
H 18.4170000   17.4280000   25.8540000  
H 21.9880000   16.7970000   23.6950000  
H 21.9530000   16.7390000   18.9470000  
H 19.2230000   18.1840000   18.0520000  
C 22.7090000   16.7720000   21.1630000  
C 22.7640000   15.3640000   21.3690000  
C 23.9520000   14.7150000   21.2250000  
C 25.1690000   15.2390000   20.7850000  
C 25.1280000   16.6150000   20.5300000  
C 23.8840000   17.3770000   20.6600000  
C 21.8410000   14.3690000   21.8990000  
C 22.4860000   13.1290000   21.7800000  
N 23.8120000   13.3930000   21.5290000  
O 20.7760000   11.5970000   22.4740000  
C 21.9510000   11.7910000   21.8240000  
O 22.5070000   10.7720000   21.4210000  
O 26.2480000   17.0910000   19.9380000  
O 23.9180000   18.6730000   20.3710000  
H 20.8420000   14.6710000   22.1990000  
H 20.4440000   12.4960000   22.7050000  
H 24.6270000   12.7910000   21.4120000  
H 26.0490000   18.0490000   19.7890000  
H 22.9860000   19.0670000   20.3840000  
H 26.1120000   14.7470000   20.7190000  
