78
011 
C 23.8280000   14.2130000   19.8200000  
C 23.6970000   13.0080000   20.5170000  
C 22.7460000   12.8540000   21.5070000  
C 21.8400000   13.7950000   21.8000000  
C 21.7990000   15.0030000   21.0890000  
C 22.8540000   15.2220000   20.1200000  
C 22.4900000   11.7760000   22.4320000  
C 21.5630000   12.2410000   23.3980000  
N 21.0810000   13.5060000   22.9140000  
O 21.5520000   10.3240000   24.9000000  
C 21.0740000   11.5350000   24.6620000  
O 20.2670000   12.0310000   25.3920000  
O 22.7790000   16.3450000   19.3100000  
O 24.7470000   14.3330000   18.7780000  
H 24.4180000   12.2190000   20.3120000  
H 23.0020000   10.8090000   22.4660000  
H 22.3630000   10.1800000   24.2730000  
H 20.2430000   13.9640000   23.1250000  
H 22.2160000   17.0180000   19.8040000  
H 24.7040000   15.2450000   18.4850000  
C 20.6190000   15.9770000   21.2700000  
C 20.7680000   17.2620000   21.8180000  
C 19.7130000   18.0430000   22.1960000  
C 18.4450000   17.7750000   21.8560000  
C 18.1750000   16.4710000   21.3430000  
C 19.2450000   15.6370000   21.0390000  
C 21.8930000   17.9960000   22.3610000  
C 21.4510000   19.1620000   23.0260000  
N 20.0280000   19.1960000   22.8540000  
O 23.5450000   20.3020000   23.3840000  
C 22.2740000   20.2900000   23.6210000  
O 21.8200000   21.2510000   24.2340000  
O 16.8600000   15.9990000   21.2470000  
O 18.9850000   14.3410000   20.5580000  
H 22.9200000   17.6980000   22.3270000  
H 23.6810000   19.5110000   22.8240000  
H 19.4630000   20.0090000   22.7890000  
H 16.1310000   16.6230000   21.4910000  
H 18.0550000   14.1180000   20.7210000  
C 17.2270000   18.6990000   22.0590000  
C 17.0200000   19.8470000   21.3320000  
C 15.9760000   20.7000000   21.5870000  
C 15.0710000   20.5630000   22.6260000  
C 15.3280000   19.4650000   23.5300000  
C 16.3920000   18.5720000   23.2470000  
C 17.7480000   20.3550000   20.2020000  
C 17.0160000   21.4820000   19.8150000  
N 15.9210000   21.7010000   20.6420000  
O 18.4900000   21.8570000   18.0410000  
C 17.4350000   22.3390000   18.7260000  
O 16.7610000   23.3140000   18.3990000  
O 14.5300000   19.2400000   24.6520000  
O 16.6880000   17.6410000   24.1750000  
H 18.5820000   19.9210000   19.7800000  
H 18.8890000   21.1950000   18.6550000  
H 15.2060000   22.4320000   20.5800000  
H 13.8350000   19.9080000   24.4800000  
H 15.9860000   17.7020000   24.8280000  
C 14.0350000   21.5500000   22.8570000  
C 12.9820000   21.7720000   21.9700000  
C 12.0400000   22.8000000   22.1470000  
C 12.1270000   23.7410000   23.1830000  
C 13.2350000   23.5530000   24.0790000  
C 14.0930000   22.4340000   23.9520000  
C 12.5550000   21.1230000   20.7620000  
C 11.4260000   21.7560000   20.2550000  
N 11.1690000   22.8200000   21.1490000  
O 10.7380000   20.2810000   18.4970000  
C 10.5700000   21.4410000   19.0940000  
O  9.6500000   22.1670000   18.7510000  
O 13.3580000   24.4760000   25.0890000  
O 15.1430000   22.3130000   24.8540000  
H 12.9840000   20.1340000   20.4480000  
H 11.6550000   20.0040000   18.7700000  
H 10.3890000   23.4560000   20.9930000  
H 14.0730000   24.1940000   25.6640000  
H 15.7190000   21.6970000   24.4380000  
H 11.4890000   24.5720000   23.3780000  
