78
011 
C 11.6210000   20.7520000   18.3700000  
C 11.9800000   20.6760000   16.9970000  
C 13.1090000   20.0120000   16.5750000  
C 13.9860000   19.5460000   17.5200000  
C 13.6950000   19.5590000   18.9040000  
C 12.4370000   20.1510000   19.3380000  
C 13.7010000   19.7060000   15.3090000  
C 14.8420000   18.9980000   15.5770000  
N 15.0000000   18.8060000   16.9450000  
O 15.4460000   18.9340000   13.2440000  
C 15.7400000   18.5150000   14.4870000  
O 16.6050000   17.6970000   14.7010000  
O 12.1370000   20.1480000   20.6640000  
O 10.4030000   21.1640000   18.7080000  
H 11.2630000   21.1450000   16.3440000  
H 13.3710000   20.0000000   14.3100000  
H 14.6980000   19.5230000   13.3080000  
H 15.8360000   18.6220000   17.4670000  
H 12.5210000   19.3150000   21.0030000  
H 10.3260000   21.1730000   19.6930000  
C 14.8040000   19.1340000   19.8210000  
C 16.0630000   19.7560000   19.7730000  
C 17.1230000   19.2940000   20.5320000  
C 16.9740000   18.2970000   21.5330000  
C 15.6630000   17.6910000   21.6590000  
C 14.6110000   18.0860000   20.8100000  
C 16.5230000   20.8990000   19.0220000  
C 17.8230000   21.2160000   19.4750000  
N 18.1810000   20.2340000   20.3880000  
O 18.0080000   23.0650000   18.0940000  
C 18.6380000   22.3330000   18.9600000  
O 19.7390000   22.5680000   19.3600000  
O 15.3560000   16.8990000   22.6770000  
O 13.3590000   17.3860000   20.8880000  
H 16.0410000   21.4380000   18.2460000  
H 17.1670000   22.6090000   18.0380000  
H 19.0540000   20.1960000   20.8390000  
H 16.1300000   16.5190000   23.0210000  
H 13.3430000   16.8940000   21.7030000  
C 18.1080000   17.9560000   22.4280000  
C 18.2780000   18.7170000   23.5930000  
C 19.3450000   18.4420000   24.4580000  
C 20.4280000   17.5610000   24.2000000  
C 20.4330000   16.9980000   22.8410000  
C 19.2960000   17.1820000   22.0210000  
C 17.4260000   19.6150000   24.2980000  
C 18.0860000   19.9010000   25.4920000  
N 19.2820000   19.2410000   25.5390000  
O 16.3230000   21.2970000   26.1550000  
C 17.5440000   20.8360000   26.5180000  
O 18.0730000   21.1800000   27.5340000  
O 21.5130000   16.1780000   22.4520000  
O 19.2940000   16.5350000   20.8610000  
H 16.4460000   19.9690000   23.9800000  
H 16.2990000   21.1800000   25.1800000  
H 20.0000000   19.3490000   26.2870000  
H 21.9790000   16.0630000   23.2460000  
H 20.1360000   16.0690000   20.7740000  
C 21.7280000   17.3390000   25.0170000  
C 21.9320000   16.1110000   25.6350000  
C 22.9500000   15.8570000   26.4590000  
C 23.9120000   16.8320000   26.8130000  
C 23.8210000   18.0630000   26.1050000  
C 22.7020000   18.3800000   25.2460000  
C 21.0960000   14.9250000   25.5040000  
C 21.7270000   13.9030000   26.1890000  
N 22.8480000   14.4620000   26.8260000  
O 19.9540000   12.4220000   26.2920000  
C 21.2680000   12.5690000   26.4910000  
O 21.9300000   11.6920000   27.0370000  
O 24.8370000   18.9950000   26.2570000  
O 22.6510000   19.6090000   24.5690000  
H 20.2110000   14.8600000   24.8830000  
H 19.6620000   13.3190000   25.9450000  
H 23.4580000   13.8830000   27.4000000  
H 24.6380000   19.8000000   25.7290000  
H 21.7750000   19.6800000   24.0340000  
H 24.7230000   16.5740000   27.5300000  
