78
011 
C 22.0790000   12.0850000   22.3390000  
C 23.0630000   12.3640000   23.3070000  
C 23.2090000   13.6720000   23.8060000  
C 22.2700000   14.6060000   23.4760000  
C 21.1830000   14.4190000   22.6090000  
C 21.1550000   13.1050000   22.0250000  
C 24.1830000   14.2740000   24.6260000  
C 23.8360000   15.5800000   24.7720000  
N 22.6220000   15.8760000   24.0070000  
O 25.6840000   15.9790000   26.1210000  
C 24.5990000   16.5810000   25.5400000  
O 24.2690000   17.7670000   25.7370000  
O 20.1250000   12.7230000   21.2380000  
O 21.9710000   10.8240000   21.8490000  
H 23.7630000   11.6020000   23.5960000  
H 25.1360000   13.8110000   24.9100000  
H 25.6950000   15.1280000   25.6990000  
H 22.1400000   16.7410000   23.8280000  
H 19.5580000   13.4610000   21.1100000  
H 21.4070000   10.8030000   21.0370000  
C 20.0560000   15.4050000   22.4940000  
C 19.9820000   16.3740000   21.5070000  
C 19.0160000   17.3140000   21.4590000  
C 17.9990000   17.4640000   22.3940000  
C 18.0730000   16.6190000   23.4980000  
C 19.0790000   15.6060000   23.5560000  
C 20.8200000   16.6200000   20.2910000  
C 20.4110000   17.8350000   19.7410000  
N 19.2320000   18.1840000   20.4080000  
O 22.0690000   17.9590000   18.0880000  
C 21.0190000   18.5700000   18.6580000  
O 20.5960000   19.7150000   18.4270000  
O 17.1440000   16.7610000   24.4830000  
O 19.0930000   14.7790000   24.6330000  
H 21.6300000   16.1190000   19.9240000  
H 22.1350000   17.1860000   18.5770000  
H 18.5910000   18.8650000   20.1520000  
H 16.4480000   17.4310000   24.2220000  
H 18.2720000   14.8750000   25.0080000  
C 17.1270000   18.6630000   22.3250000  
C 16.2540000   18.8150000   21.2550000  
C 15.4890000   19.9120000   21.0760000  
C 15.6900000   21.0920000   21.7470000  
C 16.5570000   21.0470000   22.8150000  
C 17.2680000   19.8720000   23.0940000  
C 15.7950000   17.9030000   20.2120000  
C 15.0650000   18.7130000   19.2990000  
N 14.8340000   19.9440000   19.9070000  
O 14.8760000   17.0130000   17.6360000  
C 14.5150000   18.2980000   17.9530000  
O 13.7640000   18.9930000   17.2470000  
O 16.7750000   22.1690000   23.5690000  
O 18.1290000   19.7670000   24.1800000  
H 16.1850000   16.8980000   20.0470000  
H 15.1470000   16.7340000   18.4730000  
H 14.2460000   20.7020000   19.6440000  
H 16.3670000   22.9930000   23.1820000  
H 18.4160000   20.6670000   24.3910000  
C 15.0160000   22.4230000   21.4850000  
C 13.6560000   22.5740000   21.7230000  
C 12.9650000   23.7430000   21.3650000  
C 13.6340000   24.8200000   20.7850000  
C 15.0480000   24.7300000   20.5950000  
C 15.6760000   23.4880000   20.8820000  
C 12.6660000   21.6440000   22.2140000  
C 11.4000000   22.2710000   22.1150000  
N 11.6150000   23.5890000   21.6770000  
O 10.0670000   20.3610000   22.6860000  
C 10.0990000   21.6190000   22.3060000  
O  9.0350000   22.2380000   22.1120000  
O 15.7510000   25.7390000   20.0100000  
O 17.0120000   23.3440000   20.5160000  
H 12.7600000   20.5980000   22.3720000  
H 10.9020000   20.0650000   22.4470000  
H 10.8840000   24.2560000   21.4830000  
H 16.6720000   25.4970000   20.0040000  
H 17.4600000   22.6410000   20.9110000  
H 13.0910000   25.6950000   20.5200000  
