78
011 
C 21.4840000   12.6710000   24.9500000  
C 22.7700000   13.0350000   25.3930000  
C 23.2180000   14.3340000   25.0170000  
C 22.3200000   15.2320000   24.4360000  
C 20.9960000   14.9110000   23.9750000  
C 20.6140000   13.5630000   24.2180000  
C 24.3880000   15.1180000   25.3550000  
C 24.1300000   16.3780000   24.7810000  
N 22.8600000   16.4390000   24.2630000  
O 26.1690000   17.3700000   25.5650000  
C 24.9690000   17.5800000   24.9470000  
O 24.6880000   18.7350000   24.7260000  
O 19.4280000   13.1000000   23.6780000  
O 20.9690000   11.4570000   25.1780000  
H 23.3650000   12.3230000   25.9660000  
H 25.3130000   14.8280000   25.9130000  
H 26.1740000   16.3770000   25.6520000  
H 22.3360000   17.1410000   23.7420000  
H 18.9670000   13.7970000   23.2110000  
H 20.3020000   11.2970000   24.5010000  
C 19.9660000   15.9600000   23.4490000  
C 20.0450000   16.2360000   22.0920000  
C 19.2400000   17.1830000   21.5260000  
C 18.3090000   18.0010000   22.2040000  
C 18.2550000   17.7990000   23.6180000  
C 19.0670000   16.7940000   24.2110000  
C 20.7750000   15.6430000   21.0270000  
C 20.5010000   16.4440000   19.8980000  
N 19.5200000   17.4520000   20.1610000  
O 21.7490000   14.9960000   18.4490000  
C 21.0410000   16.1060000   18.5450000  
O 21.0570000   16.8360000   17.5680000  
O 17.3720000   18.5400000   24.4030000  
O 19.0170000   16.7780000   25.5740000  
H 21.4590000   14.8220000   20.9700000  
H 21.6960000   14.5240000   19.3000000  
H 19.2580000   18.2790000   19.6050000  
H 16.9880000   19.2070000   23.8490000  
H 18.2020000   17.3860000   25.7490000  
C 17.4140000   18.9840000   21.5520000  
C 16.4650000   18.5670000   20.6070000  
C 15.4700000   19.4500000   20.2300000  
C 15.3960000   20.8460000   20.5290000  
C 16.4820000   21.3480000   21.3490000  
C 17.4400000   20.3800000   21.8650000  
C 16.2360000   17.3560000   19.9170000  
C 15.0850000   17.5100000   19.1190000  
N 14.6370000   18.8770000   19.2850000  
O 15.2120000   15.4640000   17.8260000  
C 14.5330000   16.5840000   18.0790000  
O 13.5550000   16.8710000   17.4350000  
O 16.6460000   22.6950000   21.7210000  
O 18.3190000   20.8840000   22.7060000  
H 16.9040000   16.5610000   19.8400000  
H 16.0840000   15.4460000   18.2690000  
H 13.9460000   19.4230000   18.8200000  
H 15.8790000   23.1780000   21.3980000  
H 17.9180000   21.8090000   22.9440000  
C 14.3760000   21.7610000   20.0440000  
C 13.5440000   22.4690000   20.8960000  
C 12.6450000   23.4360000   20.4690000  
C 12.3600000   23.6030000   19.1450000  
C 13.1030000   22.8520000   18.2690000  
C 14.1220000   21.9950000   18.6670000  
C 13.3980000   22.5250000   22.3800000  
C 12.6540000   23.5930000   22.7390000  
N 12.0410000   24.0320000   21.6130000  
O 12.9300000   23.3630000   25.1060000  
C 12.3230000   24.0530000   24.1150000  
O 11.6370000   25.0410000   24.3140000  
O 12.8910000   23.0850000   16.9370000  
O 14.8470000   21.4140000   17.7140000  
H 13.8010000   21.7540000   23.0310000  
H 13.4670000   22.7330000   24.5970000  
H 11.4060000   24.7700000   21.4430000  
H 13.3990000   22.5310000   16.3640000  
H 15.6820000   21.1560000   18.0680000  
H 11.6620000   24.3810000   18.7560000  
