78
011 
C 21.4520000   12.5210000   19.0100000  
C 22.7710000   12.5200000   19.4880000  
C 23.1270000   13.4810000   20.4680000  
C 22.3090000   14.4810000   20.7690000  
C 20.9720000   14.5660000   20.3440000  
C 20.5940000   13.5380000   19.3660000  
C 24.4460000   13.7820000   21.0590000  
C 24.2650000   15.0250000   21.6540000  
N 22.9620000   15.4440000   21.4920000  
O 26.3440000   14.9970000   22.7320000  
C 25.2560000   15.7420000   22.4230000  
O 25.2350000   16.9260000   22.8330000  
O 19.3170000   13.5010000   18.8470000  
O 21.0750000   11.5750000   18.1040000  
H 23.4510000   11.7330000   19.1830000  
H 25.3680000   13.2030000   20.9660000  
H 26.0910000   14.0460000   22.5270000  
H 22.4800000   16.2520000   21.9260000  
H 18.6920000   14.0460000   19.3470000  
H 20.4130000   11.9800000   17.5460000  
C 20.0440000   15.6480000   20.8630000  
C 19.4080000   16.5490000   20.0200000  
C 18.5830000   17.5120000   20.4860000  
C 18.2320000   17.6690000   21.8620000  
C 18.8430000   16.7370000   22.7290000  
C 19.7850000   15.7610000   22.2340000  
C 19.6230000   16.8670000   18.6200000  
C 18.9200000   18.0130000   18.3510000  
N 18.3120000   18.4200000   19.5500000  
O 19.3790000   17.8560000   15.9820000  
C 18.7870000   18.6210000   16.9670000  
O 18.2090000   19.6590000   16.7510000  
O 18.5470000   16.7530000   24.0800000  
O 20.3390000   14.9360000   23.0930000  
H 20.3340000   16.4810000   17.9090000  
H 19.6890000   17.0660000   16.5100000  
H 17.8280000   19.2770000   19.7580000  
H 18.2190000   17.6870000   24.0880000  
H 20.3930000   15.4670000   23.9880000  
C 17.4970000   18.8870000   22.3180000  
C 16.2250000   19.1930000   21.8320000  
C 15.5950000   20.3020000   22.2920000  
C 16.1310000   21.2630000   23.2110000  
C 17.4420000   21.0510000   23.6590000  
C 18.0470000   19.8160000   23.2210000  
C 15.3610000   18.5890000   20.8520000  
C 14.1880000   19.3850000   20.7630000  
N 14.2970000   20.3990000   21.7390000  
O 13.0380000   18.1080000   19.1330000  
C 13.0520000   19.2140000   19.8850000  
O 12.1920000   20.0910000   19.8610000  
O 18.0870000   21.9140000   24.4540000  
O 19.3280000   19.6550000   23.6250000  
H 15.6220000   17.6770000   20.3040000  
H 13.8670000   17.6940000   19.3390000  
H 13.6230000   21.0630000   21.9280000  
H 17.2980000   22.4010000   24.7550000  
H 19.5950000   20.4420000   24.0980000  
C 15.3220000   22.4460000   23.5070000  
C 14.2250000   22.2630000   24.3610000  
C 13.4660000   23.2800000   24.7850000  
C 13.6130000   24.6280000   24.3370000  
C 14.6550000   24.8010000   23.3950000  
C 15.5890000   23.7840000   23.0940000  
C 13.7550000   21.1010000   25.0650000  
C 12.7900000   21.4600000   26.0030000  
N 12.6140000   22.8300000   25.7710000  
O 12.1310000   19.1510000   26.3630000  
C 12.0020000   20.4490000   26.7980000  
O 11.1360000   20.6000000   27.6460000  
O 14.9460000   26.0680000   22.9060000  
O 16.7850000   24.0730000   22.3870000  
H 14.1930000   20.1210000   24.9890000  
H 12.6530000   19.1570000   25.5810000  
H 11.9450000   23.4270000   26.2910000  
H 15.6440000   25.9660000   22.2840000  
H 17.4560000   23.4630000   22.6120000  
H 13.0360000   25.4800000   24.7330000  
