78
011 
C 20.9780000   13.2880000   26.2750000  
C 22.3290000   13.4720000   26.3600000  
C 22.8790000   14.5800000   25.7010000  
C 22.0820000   15.4500000   24.9370000  
C 20.7100000   15.3240000   24.7930000  
C 20.1860000   14.2150000   25.5200000  
C 24.2060000   15.2080000   25.7530000  
C 24.1650000   16.3740000   25.0200000  
N 22.8840000   16.5180000   24.4570000  
O 26.3920000   16.9020000   25.5290000  
C 25.2510000   17.3460000   24.8790000  
O 25.2140000   18.3000000   24.1020000  
O 18.8210000   14.0950000   25.4480000  
O 20.3650000   12.2460000   26.9440000  
H 23.0190000   12.8340000   26.8970000  
H 25.0770000   14.8050000   26.3090000  
H 26.0070000   16.1320000   25.9990000  
H 22.6140000   17.3710000   24.0150000  
H 18.4580000   14.8220000   24.9380000  
H 19.4600000   12.2950000   26.7030000  
C 19.8600000   16.3580000   24.1160000  
C 20.0810000   16.5410000   22.7380000  
C 19.2590000   17.3830000   22.1010000  
C 18.2740000   18.1210000   22.7480000  
C 18.0830000   18.0310000   24.1520000  
C 18.9160000   17.1580000   24.8450000  
C 20.8180000   15.8800000   21.6550000  
C 20.4440000   16.4840000   20.4510000  
N 19.5610000   17.4810000   20.7750000  
O 21.8870000   15.2560000   19.1120000  
C 20.9350000   16.1610000   19.1230000  
O 20.4980000   16.5810000   18.1100000  
O 17.0280000   18.7480000   24.7570000  
O 18.7020000   17.1770000   26.1500000  
H 21.3900000   14.9520000   21.8000000  
H 21.9790000   15.0310000   20.0210000  
H 19.3330000   18.2610000   20.1200000  
H 16.8570000   19.5290000   24.1920000  
H 17.9800000   17.8250000   26.2450000  
C 17.5310000   19.1920000   21.9380000  
C 16.5410000   18.8060000   21.0280000  
C 15.8850000   19.7580000   20.2760000  
C 16.0980000   21.1320000   20.3700000  
C 17.1050000   21.5820000   21.3410000  
C 17.7980000   20.6280000   22.1280000  
C 15.8650000   17.5430000   20.8230000  
C 14.7820000   17.8080000   19.9340000  
N 14.8990000   19.1670000   19.4840000  
O 13.7540000   15.6410000   20.1940000  
C 13.8140000   16.8030000   19.5020000  
O 13.0140000   17.0490000   18.6110000  
O 17.5750000   22.8770000   21.3760000  
O 18.6810000   21.0720000   23.1030000  
H 16.0460000   16.6090000   21.2850000  
H 14.2990000   15.7680000   21.0150000  
H 14.3550000   19.7520000   18.8400000  
H 16.8450000   23.3480000   21.0240000  
H 18.5500000   22.0110000   23.2960000  
C 15.2770000   22.0200000   19.4870000  
C 13.8860000   22.2160000   19.5710000  
C 13.2230000   22.9810000   18.6620000  
C 13.8620000   23.6400000   17.6260000  
C 15.2390000   23.3640000   17.4390000  
C 15.9790000   22.5880000   18.3470000  
C 12.9000000   21.7120000   20.5280000  
C 11.6620000   22.1670000   20.0130000  
N 11.8790000   22.9450000   18.8800000  
O 10.3230000   20.7720000   21.4980000  
C 10.3100000   21.6440000   20.4780000  
O  9.2910000   22.0930000   19.9140000  
O 15.8870000   23.8980000   16.3210000  
O 17.2920000   22.4190000   18.2260000  
H 13.0860000   21.0300000   21.3110000  
H 11.2390000   20.5910000   21.7160000  
H 11.1250000   23.4410000   18.4160000  
H 16.3600000   23.1880000   15.8950000  
H 17.7070000   21.6950000   18.7010000  
H 13.2330000   24.2170000   16.8690000  
