78
011 
C 15.6550000   17.0520000   14.9150000  
C 16.7090000   17.0500000   13.9990000  
C 18.0020000   17.1910000   14.4640000  
C 18.2190000   17.3820000   15.8250000  
C 17.2550000   17.2310000   16.7800000  
C 15.9590000   17.0760000   16.2810000  
C 19.2560000   17.5110000   13.8220000  
C 20.1790000   17.8100000   14.8190000  
N 19.5860000   17.6250000   16.0660000  
O 21.8520000   18.4820000   13.3290000  
C 21.5070000   18.2540000   14.5740000  
O 22.3480000   18.1910000   15.4680000  
O 14.9370000   17.0700000   17.2370000  
O 14.3720000   16.9010000   14.4680000  
H 16.4920000   17.0250000   12.9420000  
H 19.5270000   17.5810000   12.7610000  
H 21.0380000   18.3440000   12.7730000  
H 19.9710000   17.9450000   16.9180000  
H 15.3890000   17.2740000   18.1000000  
H 13.8240000   16.9550000   15.3090000  
C 17.4910000   17.3800000   18.2480000  
C 16.9310000   18.4890000   18.9470000  
C 17.3200000   18.7450000   20.2640000  
C 18.2100000   18.0010000   20.9960000  
C 18.6640000   16.8350000   20.3440000  
C 18.3240000   16.4570000   19.0050000  
C 16.1050000   19.6750000   18.5420000  
C 15.9430000   20.4550000   19.7190000  
N 16.7500000   19.8820000   20.7210000  
O 14.5340000   22.1180000   18.8420000  
C 15.1260000   21.6090000   19.9610000  
O 15.0090000   22.2210000   21.0150000  
O 19.5630000   16.0850000   21.0550000  
O 18.9220000   15.3530000   18.5320000  
H 15.6750000   19.8610000   17.5840000  
H 14.7430000   21.5430000   18.1080000  
H 16.6420000   20.0600000   21.7430000  
H 19.9590000   16.6890000   21.7690000  
H 19.5050000   15.0130000   19.1910000  
C 18.4450000   18.3710000   22.3520000  
C 17.3540000   18.3550000   23.2870000  
C 17.5620000   18.7620000   24.5800000  
C 18.6970000   19.4410000   25.0340000  
C 19.8330000   19.4350000   24.1340000  
C 19.6760000   18.8720000   22.8450000  
C 16.0410000   17.7220000   23.2870000  
C 15.5790000   17.8410000   24.5740000  
N 16.4820000   18.6080000   25.3630000  
O 13.6700000   16.4240000   24.2710000  
C 14.3500000   17.2220000   25.1160000  
O 13.8460000   17.5540000   26.1770000  
O 21.0290000   19.9460000   24.5240000  
O 20.7090000   18.8350000   21.9740000  
H 15.5850000   17.0970000   22.5480000  
H 14.2280000   16.4170000   23.4420000  
H 16.4630000   18.8950000   26.3860000  
H 20.8230000   20.4980000   25.2960000  
H 21.4780000   19.4760000   22.0780000  
C 18.6970000   19.9670000   26.4390000  
C 18.7680000   19.1130000   27.5870000  
C 18.7370000   19.5600000   28.8470000  
C 18.6550000   20.9310000   29.1650000  
C 18.7310000   21.8180000   28.0950000  
C 18.8800000   21.3530000   26.7690000  
C 18.6030000   17.6710000   27.7030000  
C 18.7200000   17.3760000   29.0320000  
N 18.8590000   18.5240000   29.7410000  
O 18.4310000   15.0270000   28.8800000  
C 18.7530000   16.0510000   29.6670000  
O 19.0230000   15.8380000   30.8620000  
O 18.7170000   23.1700000   28.3600000  
O 18.9580000   22.2190000   25.7750000  
H 18.4020000   16.8890000   26.9820000  
H 18.3080000   15.3390000   27.9950000  
H 18.7960000   18.4760000   30.7400000  
H 18.4560000   23.5100000   27.4530000  
H 19.0750000   21.7300000   25.0040000  
H 18.5880000   21.2880000   30.1890000  
