78
011 
C 10.8380000   19.7300000   20.7480000  
C 10.5660000   20.3730000   19.5350000  
C 11.5930000   20.7330000   18.6600000  
C 12.8470000   20.3370000   18.9500000  
C 13.2250000   19.6540000   20.1350000  
C 12.1550000   19.3450000   21.0710000  
C 11.6240000   21.2840000   17.3520000  
C 12.9380000   21.2960000   16.9350000  
N 13.7300000   20.6610000   17.9240000  
O 12.5320000   22.3050000   14.8130000  
C 13.4370000   21.7590000   15.6340000  
O 14.6100000   21.7570000   15.3280000  
O 12.4380000   18.5660000   22.1980000  
O  9.7770000   19.4370000   21.5900000  
H  9.5490000   20.5960000   19.2740000  
H 10.7860000   21.6490000   16.7370000  
H 11.6820000   22.1650000   15.2430000  
H 14.7150000   20.3670000   17.8230000  
H 13.2780000   18.0990000   22.0770000  
H 10.0490000   18.8890000   22.3620000  
C 14.6550000   19.1760000   20.3890000  
C 15.7320000   20.1360000   20.3830000  
C 16.9200000   19.6950000   20.8770000  
C 17.3060000   18.3720000   21.2480000  
C 16.2390000   17.4040000   21.1100000  
C 14.9510000   17.8140000   20.6630000  
C 15.7910000   21.5050000   20.3170000  
C 17.0880000   21.8570000   20.4020000  
N 17.8300000   20.7490000   20.8640000  
O 16.5060000   24.1600000   20.1040000  
C 17.4820000   23.2570000   20.4270000  
O 18.5680000   23.6630000   20.7020000  
O 16.5030000   16.0870000   21.5140000  
O 13.9310000   16.8220000   20.6250000  
H 15.0150000   22.1850000   20.1640000  
H 15.8100000   23.5330000   19.8250000  
H 18.8150000   20.7290000   21.1200000  
H 17.5190000   16.0880000   21.6080000  
H 14.3550000   16.0470000   21.0060000  
C 18.6760000   18.0030000   21.7610000  
C 19.1180000   18.3970000   23.0710000  
C 20.3500000   17.9100000   23.5490000  
C 21.3400000   17.3170000   22.8000000  
C 20.9330000   17.0480000   21.4320000  
C 19.6400000   17.3580000   20.9310000  
C 18.4690000   19.0640000   24.1470000  
C 19.3600000   19.0420000   25.2010000  
N 20.5530000   18.3710000   24.8730000  
O 17.8750000   20.0150000   26.8070000  
C 19.0740000   19.4860000   26.6140000  
O 19.8310000   19.3680000   27.5900000  
O 21.8790000   16.5030000   20.5930000  
O 19.3370000   17.1480000   19.6590000  
H 17.4680000   19.5230000   24.1140000  
H 17.3730000   19.7230000   25.9910000  
H 21.3440000   18.2780000   25.4680000  
H 22.8320000   16.5980000   20.9850000  
H 20.1210000   16.7860000   19.2400000  
C 22.5780000   16.7370000   23.4220000  
C 22.5040000   15.5700000   24.1970000  
C 23.6760000   14.9090000   24.6140000  
C 24.9210000   15.3290000   24.1830000  
C 25.0570000   16.6180000   23.6610000  
C 23.9060000   17.2590000   23.2020000  
C 21.4140000   14.6950000   24.6210000  
C 21.9240000   13.6320000   25.3740000  
N 23.2850000   13.8110000   25.3410000  
O 19.7650000   12.6230000   25.8010000  
C 21.0820000   12.6600000   26.1090000  
O 21.5680000   12.0260000   26.9930000  
O 26.2890000   17.1410000   23.4160000  
O 24.1040000   18.4680000   22.6350000  
H 20.3040000   14.9020000   24.5280000  
H 19.5990000   13.2580000   25.1330000  
H 23.8950000   13.0420000   25.5140000  
H 26.1120000   18.0190000   23.0870000  
H 23.3220000   18.6690000   22.0490000  
H 25.7630000   14.6470000   24.2300000  
