78
011 
C 21.1460000   15.4990000   16.1220000  
C 21.9590000   14.3760000   16.3740000  
C 21.7180000   13.6600000   17.5460000  
C 20.9400000   14.1970000   18.5770000  
C 20.2090000   15.4240000   18.4650000  
C 20.2670000   15.9700000   17.1470000  
C 22.3390000   12.4840000   18.0160000  
C 21.7190000   12.2390000   19.3030000  
N 20.9460000   13.3780000   19.6770000  
O 22.7390000   10.1980000   19.5730000  
C 22.0450000   11.1020000   20.1850000  
O 21.8410000   11.0770000   21.3750000  
O 19.5390000   17.0750000   16.8300000  
O 21.3100000   16.1760000   14.9190000  
H 22.6350000   14.0600000   15.6000000  
H 23.1320000   11.9280000   17.4630000  
H 22.6260000   10.3720000   18.6600000  
H 20.4550000   13.4970000   20.5060000  
H 18.8730000   17.2520000   17.5470000  
H 21.0510000   17.1050000   15.0140000  
C 19.4710000   16.1270000   19.5530000  
C 19.9340000   17.2740000   20.1820000  
C 19.1860000   17.9250000   21.1120000  
C 18.0060000   17.4840000   21.7070000  
C 17.4910000   16.3390000   21.0900000  
C 18.1860000   15.7390000   20.0000000  
C 21.0910000   18.1060000   19.8450000  
C 20.9940000   19.2010000   20.6830000  
N 19.8510000   19.0720000   21.4490000  
O 22.6870000   20.4230000   19.6020000  
C 21.8290000   20.3970000   20.6050000  
O 21.6150000   21.3120000   21.3570000  
O 16.2270000   15.9680000   21.3500000  
O 17.5480000   14.6650000   19.3560000  
H 21.8070000   17.8640000   19.1140000  
H 22.6520000   19.4570000   19.4730000  
H 19.5510000   19.8290000   21.9550000  
H 15.9470000   16.5390000   22.0850000  
H 16.6570000   14.5790000   19.7750000  
C 17.3460000   18.3120000   22.7330000  
C 16.8120000   19.5220000   22.3660000  
C 16.4060000   20.4250000   23.3460000  
C 16.3180000   20.1600000   24.7220000  
C 16.6550000   18.8260000   25.0980000  
C 17.2130000   17.9310000   24.1130000  
C 16.7550000   20.2230000   21.1090000  
C 16.3430000   21.5680000   21.4020000  
N 16.1460000   21.7030000   22.8370000  
O 16.6490000   22.3710000   19.2090000  
C 16.3040000   22.6850000   20.4270000  
O 16.0630000   23.7800000   20.7050000  
O 16.5760000   18.5520000   26.4440000  
O 17.6680000   16.7220000   24.5670000  
H 16.9820000   19.8420000   20.1430000  
H 17.1250000   21.4970000   19.2290000  
H 15.8190000   22.5180000   23.3180000  
H 16.2720000   19.3750000   26.8800000  
H 17.6700000   16.7040000   25.5480000  
C 15.7360000   21.1750000   25.6620000  
C 14.3790000   21.4030000   25.6940000  
C 13.7960000   22.4590000   26.4540000  
C 14.4550000   23.1290000   27.4180000  
C 15.8590000   22.8420000   27.5640000  
C 16.4790000   21.9410000   26.6580000  
C 13.3400000   20.9670000   24.7720000  
C 12.1720000   21.7340000   24.9900000  
N 12.4990000   22.7240000   26.0170000  
O 10.8080000   20.4090000   23.5210000  
C 10.8370000   21.4910000   24.3430000  
O  9.8860000   22.2210000   24.5740000  
O 16.6450000   23.7120000   28.2810000  
O 17.8060000   21.8140000   26.5710000  
H 13.3480000   20.2470000   23.9790000  
H 11.7270000   20.1800000   23.5810000  
H 11.8930000   23.4600000   26.1700000  
H 17.5180000   23.5360000   27.9140000  
H 18.1040000   20.9900000   26.1710000  
H 13.8340000   23.8300000   28.0700000  
