78
011 
C 10.7610000   20.0580000   21.8460000  
C 10.4310000   21.3840000   22.0150000  
C 11.4250000   22.2880000   22.2740000  
C 12.7180000   21.8870000   22.1170000  
C 13.1710000   20.5650000   21.8610000  
C 12.0960000   19.6310000   21.8030000  
C 11.4640000   23.7280000   22.4190000  
C 12.7630000   24.1310000   22.5380000  
N 13.5570000   22.9940000   22.2820000  
O 12.0910000   26.2390000   23.3100000  
C 13.1540000   25.4830000   22.9450000  
O 14.2820000   25.9110000   22.9050000  
O 12.3010000   18.2780000   21.7180000  
O  9.7110000   19.1740000   21.9320000  
H  9.3930000   21.7180000   22.0900000  
H 10.5300000   24.2760000   22.5090000  
H 11.2910000   25.7350000   23.1170000  
H 14.4350000   22.9880000   21.8470000  
H 13.2180000   18.0480000   21.7570000  
H  9.9500000   18.3020000   21.7180000  
C 14.6090000   20.1270000   21.8100000  
C 15.4830000   20.0350000   22.8590000  
C 16.7940000   19.5860000   22.7210000  
C 17.4030000   19.1430000   21.5500000  
C 16.4970000   19.2780000   20.4320000  
C 15.1630000   19.6570000   20.5760000  
C 15.3520000   20.2470000   24.2740000  
C 16.5760000   19.9470000   24.9200000  
N 17.4440000   19.5940000   23.9390000  
O 16.1010000   20.6110000   27.1920000  
C 16.9760000   20.0330000   26.3300000  
O 18.0290000   19.5750000   26.7130000  
O 16.9580000   18.6650000   19.2820000  
O 14.4540000   19.7200000   19.4300000  
H 14.3830000   20.3990000   24.7670000  
H 15.4390000   21.1890000   26.6870000  
H 18.4110000   19.3400000   24.0530000  
H 17.8730000   18.7530000   19.4570000  
H 15.1410000   19.4800000   18.8020000  
C 18.8550000   18.6220000   21.3490000  
C 19.2190000   17.5240000   22.0830000  
C 20.4690000   16.9500000   21.9460000  
C 21.4160000   17.3010000   20.9490000  
C 21.0030000   18.3600000   20.0760000  
C 19.7550000   19.1020000   20.3310000  
C 18.5990000   16.7060000   23.1370000  
C 19.5040000   15.8280000   23.6230000  
N 20.5780000   15.8420000   22.7590000  
O 18.1050000   15.1370000   25.4130000  
C 19.2500000   14.9330000   24.7550000  
O 19.9640000   14.0120000   25.0530000  
O 21.8860000   18.8670000   19.2360000  
O 19.3440000   20.1140000   19.5450000  
H 17.5920000   16.8570000   23.4380000  
H 17.6510000   15.6860000   24.8300000  
H 21.3650000   15.2370000   22.7890000  
H 22.5970000   18.1970000   19.1660000  
H 20.0990000   20.4410000   18.9130000  
C 22.6900000   16.5530000   20.9210000  
C 22.6620000   15.3180000   20.1920000  
C 23.8090000   14.5880000   19.9540000  
C 25.0980000   15.0010000   20.3580000  
C 25.1660000   16.2420000   20.9260000  
C 24.0480000   17.0620000   21.1200000  
C 21.5540000   14.6250000   19.5240000  
C 22.0930000   13.4160000   19.0680000  
N 23.5300000   13.4030000   19.2570000  
O 20.0390000   12.5070000   18.4410000  
C 21.3700000   12.3020000   18.4490000  
O 21.9150000   11.3090000   17.9470000  
O 26.3920000   16.7510000   21.1760000  
O 24.2000000   18.2950000   21.6000000  
H 20.4960000   14.9520000   19.6320000  
H 19.9110000   13.3830000   18.9030000  
H 24.2210000   12.6740000   18.9570000  
H 26.4720000   17.7120000   20.9390000  
H 23.3090000   18.7510000   21.6110000  
H 25.9870000   14.4390000   20.0790000  
