78
011 
C 14.1760000   17.2800000   15.7850000  
C 14.8260000   17.5570000   14.6440000  
C 15.9880000   18.3050000   14.7150000  
C 16.5530000   18.5290000   15.9180000  
C 15.9790000   18.1340000   17.1440000  
C 14.7630000   17.4950000   17.0160000  
C 16.8720000   18.8220000   13.6490000  
C 17.9590000   19.2570000   14.3380000  
N 17.6810000   19.2020000   15.7430000  
O 19.4070000   19.7130000   12.4460000  
C 19.2360000   19.8870000   13.7500000  
O 20.1070000   20.4330000   14.3890000  
O 14.1400000   17.1240000   18.2050000  
O 12.8740000   16.8150000   15.6970000  
H 14.3830000   17.4220000   13.6970000  
H 16.7820000   18.5800000   12.5450000  
H 18.6780000   19.0880000   12.2210000  
H 18.2760000   19.6720000   16.4260000  
H 14.7450000   17.3410000   18.9560000  
H 12.6360000   16.4810000   16.5390000  
C 16.6330000   18.2290000   18.4990000  
C 16.2800000   19.3080000   19.2890000  
C 16.8540000   19.4820000   20.5140000  
C 17.9050000   18.7070000   21.0710000  
C 18.3000000   17.6310000   20.2290000  
C 17.7070000   17.4330000   18.9520000  
C 15.2230000   20.3460000   19.2050000  
C 15.3560000   21.0860000   20.3940000  
N 16.3170000   20.5380000   21.2120000  
O 13.5680000   22.4600000   19.8800000  
C 14.5390000   22.2360000   20.7510000  
O 14.7520000   22.9450000   21.7030000  
O 19.3130000   16.7590000   20.6310000  
O 18.1870000   16.4360000   18.1610000  
H 14.4830000   20.5410000   18.3460000  
H 13.4920000   21.6630000   19.3720000  
H 16.5610000   20.7810000   22.1020000  
H 19.4810000   17.1060000   21.4240000  
H 18.9420000   15.9420000   18.6380000  
C 18.4110000   18.9160000   22.4830000  
C 17.5280000   18.6620000   23.6120000  
C 18.0120000   18.7110000   24.8830000  
C 19.3760000   18.9030000   25.2460000  
C 20.2600000   19.1910000   24.1670000  
C 19.8000000   19.2200000   22.8160000  
C 16.1910000   18.2280000   23.6810000  
C 15.9440000   18.0190000   25.0300000  
N 17.0680000   18.2750000   25.8070000  
O 13.6370000   17.5050000   24.5870000  
C 14.6470000   17.6130000   25.4860000  
O 14.5460000   17.3070000   26.6510000  
O 21.5660000   19.5710000   24.3880000  
O 20.6300000   19.5000000   21.7780000  
H 15.4590000   18.1940000   22.9320000  
H 13.8100000   18.0510000   23.7620000  
H 17.1050000   18.1870000   26.8170000  
H 21.7430000   19.4870000   25.3720000  
H 21.5300000   19.6330000   22.0900000  
C 19.8710000   18.7210000   26.6160000  
C 20.3300000   17.4790000   27.1880000  
C 20.8960000   17.4790000   28.4740000  
C 20.9540000   18.6440000   29.3050000  
C 20.5110000   19.8400000   28.7060000  
C 19.9010000   19.9100000   27.4180000  
C 20.3840000   16.1110000   26.7080000  
C 21.0940000   15.3420000   27.6500000  
N 21.3030000   16.1410000   28.7900000  
O 21.4010000   13.5170000   26.1080000  
C 21.6830000   13.9950000   27.3340000  
O 22.3730000   13.3460000   28.1410000  
O 20.7900000   20.9840000   29.3080000  
O 19.6190000   21.1320000   26.8650000  
H 20.1370000   15.7790000   25.6760000  
H 20.8730000   14.1060000   25.5850000  
H 21.6940000   15.8100000   29.6930000  
H 20.1780000   21.6800000   28.9570000  
H 18.9820000   21.0510000   26.0670000  
H 21.4440000   18.5670000   30.2910000  
