78
011 
C 20.6390000   13.2200000   17.0740000  
C 22.0400000   13.4180000   17.0680000  
C 22.5470000   14.4200000   17.9150000  
C 21.6900000   15.0580000   18.7750000  
C 20.2940000   14.9230000   18.8280000  
C 19.7630000   13.9540000   17.9590000  
C 23.8600000   14.7870000   18.2980000  
C 23.6900000   15.7210000   19.3740000  
N 22.3290000   15.9340000   19.6030000  
O 25.9760000   16.5800000   19.0820000  
C 24.9070000   16.5060000   19.9140000  
O 24.8530000   17.1790000   20.9310000  
O 18.3920000   13.7580000   17.8840000  
O 20.1480000   12.2130000   16.2620000  
H 22.6950000   12.7220000   16.4860000  
H 24.8120000   14.4160000   17.8270000  
H 25.6350000   16.1860000   18.2930000  
H 21.9780000   16.6300000   20.2860000  
H 18.0930000   14.2830000   18.6620000  
H 19.2970000   11.9420000   16.6030000  
C 19.4030000   15.7060000   19.7250000  
C 18.6650000   16.7680000   19.3470000  
C 18.0350000   17.6140000   20.2240000  
C 18.1330000   17.4800000   21.5970000  
C 18.8710000   16.3270000   22.0620000  
C 19.3840000   15.3950000   21.1400000  
C 18.4730000   17.3750000   18.0150000  
C 17.8370000   18.6120000   18.2300000  
N 17.5640000   18.7510000   19.6290000  
O 17.8810000   19.2810000   15.9650000  
C 17.3290000   19.5210000   17.2040000  
O 16.4660000   20.3580000   17.4440000  
O 19.0220000   16.0800000   23.3970000  
O 20.1550000   14.3670000   21.5850000  
H 18.6360000   16.9400000   17.0510000  
H 18.4270000   18.5440000   16.0480000  
H 17.1610000   19.5140000   20.0850000  
H 18.5380000   16.7770000   23.9580000  
H 20.2620000   14.4010000   22.4960000  
C 17.6940000   18.6050000   22.4940000  
C 16.2920000   18.8860000   22.5440000  
C 15.8670000   19.9820000   23.2820000  
C 16.7430000   20.8050000   24.0140000  
C 18.1580000   20.4580000   23.9950000  
C 18.5890000   19.3790000   23.1940000  
C 15.0920000   18.4390000   21.8530000  
C 14.0410000   19.3360000   22.2510000  
N 14.5780000   20.3130000   23.0430000  
O 12.3260000   17.9600000   21.3920000  
C 12.6400000   19.1110000   22.0550000  
O 11.7200000   19.9010000   22.3480000  
O 19.1160000   21.2150000   24.6000000  
O 19.9160000   19.0560000   23.2470000  
H 15.0460000   17.5150000   21.2730000  
H 13.1110000   17.4150000   21.2620000  
H 14.1240000   21.0960000   23.5160000  
H 18.6560000   21.9410000   25.0790000  
H 20.5040000   19.4650000   23.8590000  
C 16.2260000   22.0130000   24.7910000  
C 15.4830000   21.6940000   25.9510000  
C 14.8400000   22.6820000   26.5940000  
C 14.9260000   24.0580000   26.2780000  
C 15.7510000   24.4120000   25.1620000  
C 16.3040000   23.3850000   24.4560000  
C 15.0690000   20.4520000   26.5150000  
C 14.2770000   20.7790000   27.6180000  
N 14.0670000   22.1380000   27.6090000  
O 13.7390000   18.4400000   27.9590000  
C 13.4970000   19.7470000   28.2650000  
O 12.5640000   19.9890000   28.9790000  
O 16.0430000   25.7060000   24.9040000  
O 16.9590000   23.6950000   23.3370000  
H 15.3230000   19.4730000   26.1390000  
H 14.4970000   18.4800000   27.4310000  
H 13.4000000   22.6830000   28.1630000  
H 16.2350000   25.8180000   23.9370000  
H 17.0270000   22.9150000   22.7950000  
H 14.3360000   24.7960000   26.8160000  
