78
100 
C 11.5260000   11.9300000   22.2520000  
C 11.2290000   11.3110000   21.0340000  
C 11.7020000   11.8870000   19.8680000  
C 12.4830000   13.0420000   19.9620000  
C 12.9830000   13.5650000   21.1520000  
C 12.3940000   13.0570000   22.3110000  
C 11.5550000   11.4470000   18.5870000  
C 12.3010000   12.3840000   17.8180000  
N 12.8840000   13.3240000   18.7020000  
O 11.6320000   11.3690000   15.7580000  
C 12.3400000   12.3980000   16.3190000  
O 12.9880000   13.1490000   15.6330000  
O 12.8510000   13.3760000   23.5430000  
O 10.9880000   11.3750000   23.3260000  
H 10.7130000   10.3300000   21.1300000  
H 11.0310000   10.5310000   18.3790000  
H 11.2070000   10.8480000   16.4470000  
H 13.3820000   14.1290000   18.4520000  
H 13.2910000   14.2270000   23.5720000  
H 11.1300000   11.9990000   24.0800000  
C 13.9710000   14.7190000   21.1590000  
C 13.6650000   15.9540000   21.6930000  
C 14.5570000   17.0200000   21.7450000  
C 15.8920000   16.9040000   21.1140000  
C 16.2350000   15.6200000   20.6250000  
C 15.3160000   14.5880000   20.7020000  
C 12.4800000   16.5770000   22.2680000  
C 12.7610000   17.8660000   22.7180000  
N 14.0960000   18.1480000   22.2910000  
O 10.6160000   18.3460000   23.7250000  
C 11.8620000   18.7960000   23.4100000  
O 12.1640000   19.9680000   23.6510000  
O 17.5050000   15.4090000   20.2160000  
O 15.7340000   13.3360000   20.3760000  
H 11.5530000   16.0870000   22.5180000  
H 10.4910000   17.3720000   23.5330000  
H 14.5720000   19.0520000   22.3990000  
H 17.5330000   14.4410000   20.2310000  
H 14.9920000   12.7530000   20.2650000  
C 16.8200000   18.0810000   21.3150000  
C 17.1640000   18.5970000   22.5720000  
C 17.8690000   19.7210000   22.6750000  
C 18.3980000   20.5250000   21.6580000  
C 18.1920000   19.9060000   20.3420000  
C 17.3100000   18.7750000   20.1780000  
C 16.8990000   18.2340000   23.9130000  
C 17.2900000   19.2030000   24.7910000  
N 17.9720000   20.1180000   23.9930000  
O 16.4990000   18.2060000   26.6810000  
C 17.1180000   19.2620000   26.2410000  
O 17.5940000   20.1260000   26.9270000  
O 18.7180000   20.5090000   19.2690000  
O 17.1400000   18.1900000   18.8980000  
H 16.2760000   17.3100000   24.1800000  
H 16.4460000   17.6580000   25.8920000  
H 18.3420000   20.9740000   24.3740000  
H 18.2540000   20.1640000   18.4860000  
H 16.8930000   17.2560000   19.0750000  
C 19.1170000   21.8760000   21.8560000  
C 20.3360000   21.8840000   22.6100000  
C 20.9660000   23.0310000   23.0120000  
C 20.5530000   24.2830000   22.5440000  
C 19.3920000   24.3150000   21.7660000  
C 18.6260000   23.1310000   21.5000000  
C 21.0200000   20.7750000   23.2400000  
C 22.1180000   21.3160000   23.9420000  
N 22.1470000   22.7110000   23.7360000  
O 23.0090000   19.3010000   24.7500000  
C 23.2290000   20.6200000   24.5920000  
O 24.2550000   21.0820000   25.0500000  
O 19.0080000   25.5030000   21.2360000  
O 17.5300000   23.3030000   20.7950000  
H 20.7860000   19.7610000   23.2670000  
H 22.1600000   19.0900000   24.3150000  
H 22.6660000   23.3640000   24.2890000  
H 18.0720000   25.3480000   20.8870000  
H 17.3770000   22.5110000   20.2780000  
H 21.0360000   25.2100000   22.7540000  
