78
100 
C 16.6360000   14.2100000   28.5030000  
C 17.9320000   13.5920000   28.6750000  
C 18.7980000   13.7850000   27.6090000  
C 18.4090000   14.5310000   26.5220000  
C 17.1440000   15.1110000   26.2310000  
C 16.2370000   14.8410000   27.3150000  
C 20.0820000   13.2160000   27.2540000  
C 20.4700000   13.6950000   26.0150000  
N 19.4140000   14.5300000   25.5910000  
O 22.6400000   12.6700000   25.9020000  
C 21.7300000   13.4180000   25.2400000  
O 21.9060000   13.8360000   24.0920000  
O 14.9250000   15.3070000   27.2570000  
O 15.7500000   13.8850000   29.5230000  
H 18.1920000   13.0220000   29.5600000  
H 20.5650000   12.3910000   27.8180000  
H 22.2910000   12.5940000   26.8460000  
H 19.3730000   14.9800000   24.6870000  
H 14.7250000   15.6440000   26.3820000  
H 14.8440000   14.0680000   29.1970000  
C 16.9040000   15.9870000   24.9880000  
C 16.4270000   15.4010000   23.8130000  
C 16.2710000   16.1750000   22.7010000  
C 16.7300000   17.4410000   22.5060000  
C 17.5570000   17.9070000   23.5680000  
C 17.5040000   17.2860000   24.8860000  
C 15.9050000   14.0780000   23.4760000  
C 15.3700000   14.1470000   22.2480000  
N 15.7510000   15.3900000   21.6960000  
O 14.5900000   11.9070000   22.2550000  
C 14.6760000   13.0300000   21.5170000  
O 14.2000000   13.1630000   20.3730000  
O 18.1220000   19.0620000   23.4410000  
O 18.1280000   17.8670000   25.9070000  
H 15.9440000   13.2320000   24.1370000  
H 14.8150000   12.1530000   23.1760000  
H 15.7500000   15.6400000   20.6990000  
H 18.3310000   19.5680000   24.2790000  
H 18.1630000   17.3160000   26.7240000  
C 16.4280000   18.1750000   21.2320000  
C 15.0990000   18.4390000   20.8130000  
C 14.7840000   19.0730000   19.5780000  
C 15.7450000   19.5550000   18.6780000  
C 17.1020000   19.2930000   19.0820000  
C 17.4130000   18.6590000   20.3450000  
C 13.8020000   18.0450000   21.3640000  
C 12.8200000   18.7240000   20.6040000  
N 13.4250000   19.2920000   19.4650000  
O 11.0510000   17.9590000   21.9770000  
C 11.3800000   18.6390000   20.8550000  
O 10.5800000   19.1720000   20.0920000  
O 18.1020000   19.7750000   18.3050000  
O 18.6930000   18.3380000   20.5720000  
H 13.7060000   17.5280000   22.3440000  
H 11.9010000   17.5290000   22.2510000  
H 12.9800000   19.4980000   18.6460000  
H 18.9530000   19.6450000   18.7500000  
H 18.8020000   18.0590000   21.4950000  
C 15.4620000   20.3660000   17.5150000  
C 14.8970000   21.6460000   17.6800000  
C 14.5900000   22.4220000   16.5310000  
C 14.7890000   21.9310000   15.2530000  
C 15.1960000   20.5840000   15.0970000  
C 15.5310000   19.7940000   16.2000000  
C 14.6750000   22.5520000   18.7590000  
C 14.2760000   23.7880000   18.3100000  
N 14.1910000   23.6840000   16.8520000  
O 13.9550000   24.7190000   20.4230000  
C 13.8000000   24.9130000   19.1150000  
O 13.3960000   25.9570000   18.6910000  
O 15.5640000   20.0510000   13.8720000  
O 16.0490000   18.5530000   16.0520000  
H 14.7100000   22.1820000   19.7840000  
H 14.2450000   23.7840000   20.5070000  
H 13.8900000   24.3870000   16.1540000  
H 15.8230000   19.1450000   14.1210000  
H 16.4490000   18.2430000   16.8610000  
H 14.5540000   22.5340000   14.3790000  
