78
100 
C 12.5620000   10.9130000   20.9510000  
C 13.3780000   10.0440000   21.7050000  
C 14.4080000   10.6020000   22.4970000  
C 14.6420000   11.9410000   22.5010000  
C 13.8380000   12.8730000   21.7840000  
C 12.7770000   12.3060000   21.0160000  
C 15.3680000   10.0150000   23.3990000  
C 16.0780000   11.0810000   23.9970000  
N 15.5700000   12.2910000   23.4130000  
O 17.4260000    9.7560000   25.3590000  
C 17.2350000   11.0490000   24.9090000  
O 17.7710000   12.1110000   25.2200000  
O 12.0640000   13.1080000   20.1370000  
O 11.6600000   10.4500000   20.0010000  
H 13.2820000    8.9420000   21.6920000  
H 15.5200000    8.9530000   23.6460000  
H 16.6480000    9.1850000   25.0410000  
H 15.8190000   13.1870000   23.8640000  
H 12.5870000   13.9260000   20.0890000  
H 11.4950000   11.2140000   19.3510000  
C 14.2110000   14.3030000   21.7960000  
C 15.3170000   14.7130000   21.0660000  
C 15.8160000   16.0000000   21.1770000  
C 15.3250000   16.9610000   22.1090000  
C 14.1880000   16.6090000   22.8530000  
C 13.6010000   15.3040000   22.6510000  
C 16.0690000   14.0310000   20.0190000  
C 17.0290000   14.9380000   19.6010000  
N 16.9120000   16.1460000   20.3180000  
O 18.1050000   13.3710000   18.1630000  
C 18.1020000   14.6640000   18.6070000  
O 18.9700000   15.4680000   18.3440000  
O 13.4200000   17.6000000   23.5050000  
O 12.6500000   14.8740000   23.5630000  
H 15.9350000   13.0270000   19.6350000  
H 17.5200000   12.9220000   18.7530000  
H 17.5280000   16.9280000   20.3840000  
H 12.5940000   17.1710000   23.5630000  
H 12.7040000   13.9320000   23.5310000  
C 16.0080000   18.3300000   22.2940000  
C 16.1110000   19.2600000   21.2570000  
C 16.8000000   20.4150000   21.4360000  
C 17.4000000   20.8470000   22.6730000  
C 17.2520000   19.9750000   23.7190000  
C 16.4940000   18.7330000   23.5760000  
C 15.8450000   19.1330000   19.8530000  
C 16.2920000   20.2930000   19.2570000  
N 16.8320000   21.1100000   20.2580000  
O 15.7350000   19.5500000   17.0510000  
C 16.3040000   20.4980000   17.8420000  
O 16.7660000   21.5350000   17.4080000  
O 17.6020000   20.2610000   25.0310000  
O 16.2490000   17.9220000   24.6580000  
H 15.3930000   18.3030000   19.3520000  
H 15.4230000   18.8190000   17.6710000  
H 17.1020000   22.1170000   20.1230000  
H 17.5400000   19.5000000   25.6230000  
H 15.7390000   17.1490000   24.3400000  
C 18.1080000   22.2050000   22.6410000  
C 17.4420000   23.3970000   22.3730000  
C 18.0690000   24.6080000   22.5120000  
C 19.4740000   24.7070000   22.7530000  
C 20.1180000   23.4770000   23.0090000  
C 19.5080000   22.2480000   22.9000000  
C 16.0500000   23.6840000   22.1990000  
C 15.9450000   25.0800000   22.1490000  
N 17.2040000   25.5820000   22.4210000  
O 13.6400000   25.2650000   21.9590000  
C 14.7980000   25.9250000   21.9050000  
O 14.7940000   27.0840000   21.6210000  
O 21.3890000   23.5430000   23.4500000  
O 20.1530000   21.1410000   23.4370000  
H 15.1290000   23.0570000   21.9750000  
H 13.9080000   24.3420000   22.0930000  
H 17.3230000   26.5840000   22.5260000  
H 21.5310000   22.7170000   23.9870000  
H 19.5730000   20.5430000   23.8930000  
H 19.8640000   25.7620000   22.7950000  
