78
100 
C 16.3650000   11.8690000   26.5230000  
C 16.7300000   12.2830000   27.7780000  
C 17.1600000   13.6370000   27.8750000  
C 17.0060000   14.4780000   26.8750000  
C 16.5740000   14.1580000   25.5550000  
C 16.2840000   12.7660000   25.4740000  
C 17.4100000   14.5650000   29.0080000  
C 17.5000000   15.8710000   28.5000000  
N 17.1980000   15.8250000   27.1610000  
O 18.3070000   17.0210000   30.5890000  
C 17.8970000   17.1470000   29.2950000  
O 17.9180000   18.2820000   28.7850000  
O 15.8690000   12.2880000   24.2590000  
O 16.0390000   10.5240000   26.3570000  
H 16.6220000   11.7630000   28.6730000  
H 17.5780000   14.3030000   30.0390000  
H 18.3460000   16.1040000   30.8290000  
H 17.1640000   16.5900000   26.4800000  
H 15.7600000   13.0870000   23.6380000  
H 15.8680000   10.3280000   25.4050000  
C 16.3260000   15.0790000   24.3960000  
C 17.0980000   14.9990000   23.1950000  
C 17.1280000   16.0030000   22.2690000  
C 16.2800000   17.1380000   22.3200000  
C 15.3430000   17.1010000   23.3720000  
C 15.4380000   16.1290000   24.4280000  
C 18.2460000   14.2140000   22.8550000  
C 18.9130000   14.7400000   21.7760000  
N 18.1430000   15.8580000   21.3320000  
O 20.8440000   13.3690000   21.9770000  
C 20.2200000   14.2730000   21.2270000  
O 20.6840000   14.6600000   20.1890000  
O 14.3860000   18.1010000   23.5180000  
O 14.6010000   16.2890000   25.5110000  
H 18.5750000   13.2680000   23.3260000  
H 20.4230000   13.3940000   22.9130000  
H 18.3030000   16.4960000   20.5430000  
H 13.9630000   17.7980000   24.3500000  
H 14.9160000   15.7090000   26.1820000  
C 16.2490000   18.1950000   21.3250000  
C 15.8130000   17.7850000   20.0140000  
C 15.5720000   18.7280000   19.0550000  
C 15.7570000   20.0880000   19.2800000  
C 16.3760000   20.4810000   20.5340000  
C 16.5420000   19.5550000   21.5350000  
C 15.4870000   16.5130000   19.4820000  
C 14.9280000   16.7890000   18.2150000  
N 14.9320000   18.1660000   17.9670000  
O 14.2220000   14.5520000   17.8840000  
C 14.2580000   15.7940000   17.3540000  
O 13.7130000   16.0600000   16.2690000  
O 16.7290000   21.7770000   20.8530000  
O 17.0710000   19.9680000   22.7820000  
H 15.6160000   15.5300000   19.9720000  
H 14.7630000   14.5760000   18.6860000  
H 14.5120000   18.7120000   17.1780000  
H 17.2290000   21.9040000   21.7230000  
H 17.2260000   19.1830000   23.3950000  
C 15.7130000   21.0340000   18.1240000  
C 14.6700000   21.9630000   18.0720000  
C 14.7120000   22.9260000   17.1250000  
C 15.7430000   23.0850000   16.2040000  
C 16.6880000   22.0890000   16.1890000  
C 16.6900000   21.0030000   17.1340000  
C 13.4720000   22.1160000   18.8860000  
C 12.8030000   23.2930000   18.3680000  
N 13.5670000   23.7100000   17.2710000  
O 11.3140000   23.5590000   20.2020000  
C 11.6890000   24.0440000   18.9580000  
O 11.1990000   25.0650000   18.4270000  
O 17.5060000   22.0710000   15.1080000  
O 17.5890000   20.0040000   17.0580000  
H 13.2070000   21.5020000   19.7480000  
H 11.8860000   22.8020000   20.4380000  
H 13.2850000   24.5350000   16.7700000  
H 18.2500000   21.4290000   15.1830000  
H 17.3490000   19.2920000   17.6740000  
H 15.7480000   23.8560000   15.3760000  
