78
100 
C 10.5000000   19.6290000   26.3610000  
C 10.0250000   20.9120000   26.0890000  
C 10.6120000   21.5760000   25.0320000  
C 11.4290000   20.9140000   24.1620000  
C 11.9550000   19.6530000   24.3960000  
C 11.5040000   19.0350000   25.5470000  
C 10.2360000   22.8230000   24.4100000  
C 10.8510000   22.7850000   23.1430000  
N 11.7000000   21.6760000   23.0670000  
O 10.0010000   24.8520000   22.3520000  
C 10.7610000   23.7580000   22.1180000  
O 11.3290000   23.6070000   21.0320000  
O 11.9340000   17.7470000   25.7310000  
O  9.8540000   18.8780000   27.2940000  
H  9.1550000   21.3730000   26.5850000  
H  9.4160000   23.4400000   24.7130000  
H  9.6210000   24.7600000   23.2350000  
H 12.2230000   21.4750000   22.2300000  
H 12.7660000   17.6770000   25.1940000  
H 10.3380000   17.9970000   27.1910000  
C 13.0040000   19.1080000   23.4970000  
C 14.3840000   19.3560000   23.6350000  
C 15.3350000   18.6890000   22.9170000  
C 15.0570000   17.8170000   21.8670000  
C 13.6560000   17.4900000   21.7340000  
C 12.6710000   18.0440000   22.5810000  
C 15.0650000   20.4060000   24.3330000  
C 16.4230000   20.3550000   24.0670000  
N 16.5370000   19.3960000   23.0590000  
O 17.0990000   22.1620000   25.4850000  
C 17.5120000   21.2180000   24.6720000  
O 18.6610000   21.0980000   24.3970000  
O 13.2050000   16.5950000   20.7930000  
O 11.3740000   17.5710000   22.4360000  
H 14.5370000   21.0780000   25.0790000  
H 16.1960000   21.9160000   25.5500000  
H 17.4840000   19.0100000   22.8170000  
H 12.2550000   16.3890000   21.0210000  
H 10.8670000   18.1710000   23.0720000  
C 16.1720000   17.2370000   21.0470000  
C 17.3500000   16.6650000   21.6160000  
C 18.3930000   16.1820000   20.7890000  
C 18.4320000   16.1810000   19.3910000  
C 17.2310000   16.6870000   18.7970000  
C 16.1990000   17.2300000   19.6040000  
C 17.6850000   16.2700000   22.9710000  
C 18.9020000   15.6370000   22.9310000  
N 19.3920000   15.5980000   21.6200000  
O 19.1490000   15.2240000   25.3560000  
C 19.6780000   15.0400000   24.0950000  
O 20.6630000   14.2590000   23.9910000  
O 17.0740000   16.7980000   17.4490000  
O 15.1020000   17.6320000   18.8970000  
H 17.2350000   16.5900000   23.9030000  
H 18.2530000   15.5890000   25.3010000  
H 20.1740000   15.0880000   21.2790000  
H 16.0880000   16.8880000   17.3550000  
H 14.5350000   18.1400000   19.5230000  
C 19.6340000   15.7570000   18.6510000  
C 20.0210000   14.4050000   18.7910000  
C 21.1460000   13.9660000   18.0550000  
C 22.0590000   14.7850000   17.3950000  
C 21.5350000   16.1050000   17.1200000  
C 20.4610000   16.5980000   17.8690000  
C 19.4770000   13.2130000   19.4370000  
C 20.2990000   12.1730000   19.0500000  
N 21.3360000   12.6500000   18.2040000  
O 19.1830000   10.5850000   20.3490000  
C 20.2050000   10.7910000   19.5140000  
O 21.0420000    9.9580000   19.1930000  
O 22.2460000   16.7820000   16.1630000  
O 20.2420000   17.9690000   17.8510000  
H 18.6720000   13.2710000   20.1200000  
H 18.6680000   11.3600000   20.5010000  
H 22.1400000   12.1420000   18.0250000  
H 22.0420000   17.6920000   16.2250000  
H 19.3730000   18.2190000   18.2430000  
H 22.9900000   14.4510000   17.0220000  
