78
100 
C 18.8830000   16.9530000   28.4990000  
C 17.9300000   17.0590000   29.5990000  
C 16.6160000   17.3090000   29.2340000  
C 16.2300000   17.3790000   27.9070000  
C 17.0840000   17.2980000   26.8260000  
C 18.5360000   17.0990000   27.1380000  
C 15.4690000   17.7220000   29.9890000  
C 14.4770000   18.0780000   29.0640000  
N 14.9750000   17.8280000   27.8140000  
O 12.8350000   18.6850000   30.6830000  
C 13.1290000   18.6780000   29.3390000  
O 12.4460000   19.1340000   28.4660000  
O 19.4820000   17.0550000   26.1930000  
O 20.1890000   16.6020000   28.8440000  
H 18.2250000   17.0580000   30.6830000  
H 15.4520000   17.6070000   31.0430000  
H 13.4600000   18.0940000   31.1230000  
H 14.5430000   17.9680000   26.8980000  
H 19.1930000   17.1420000   25.2660000  
H 20.7740000   16.4300000   28.0650000  
C 16.6280000   17.2690000   25.3930000  
C 16.5430000   18.4580000   24.6260000  
C 16.2100000   18.4250000   23.3310000  
C 16.0360000   17.2820000   22.5520000  
C 16.1900000   16.0580000   23.3270000  
C 16.5020000   16.1010000   24.6640000  
C 16.6910000   19.8150000   24.9800000  
C 16.1680000   20.4780000   23.8870000  
N 15.8930000   19.6840000   22.8300000  
O 16.3600000   22.6550000   24.9630000  
C 16.0910000   22.0050000   23.7890000  
O 15.8530000   22.6260000   22.7930000  
O 15.8540000   14.8710000   22.7750000  
O 16.5840000   14.9260000   25.3540000  
H 17.0310000   20.1420000   25.9680000  
H 16.1680000   22.0280000   25.7270000  
H 15.6130000   19.9360000   21.9130000  
H 16.0560000   14.1920000   23.4710000  
H 16.9300000   15.0620000   26.2320000  
C 15.7220000   17.3900000   21.1110000  
C 16.6960000   17.9350000   20.2320000  
C 16.5470000   17.9210000   18.8520000  
C 15.3520000   17.5300000   18.2070000  
C 14.3510000   17.0490000   19.0750000  
C 14.5600000   16.9610000   20.5040000  
C 17.9640000   18.5370000   20.4700000  
C 18.6000000   18.8190000   19.2320000  
N 17.6230000   18.5470000   18.2250000  
O 20.5620000   19.4960000   20.1510000  
C 19.9530000   19.2700000   19.0170000  
O 20.4810000   19.4460000   17.9600000  
O 13.1780000   16.5570000   18.5310000  
O 13.6160000   16.4840000   21.3080000  
H 18.4620000   18.7400000   21.3620000  
H 19.9230000   19.1660000   20.7660000  
H 17.8700000   18.5880000   17.2560000  
H 12.6230000   16.2250000   19.3350000  
H 13.9840000   16.3170000   22.2140000  
C 15.1550000   17.6980000   16.7310000  
C 15.2150000   16.5650000   15.9230000  
C 15.0850000   16.6290000   14.5720000  
C 14.7770000   17.8180000   13.8850000  
C 14.8090000   19.0010000   14.7240000  
C 15.0120000   18.9580000   16.1130000  
C 15.4230000   15.1910000   16.2970000  
C 15.3120000   14.4250000   15.1860000  
N 15.1160000   15.3270000   14.0910000  
O 15.8410000   12.5320000   16.4620000  
C 15.4400000   12.9550000   15.2250000  
O 15.2380000   12.2760000   14.2480000  
O 14.4580000   20.1550000   14.0400000  
O 14.9680000   20.0880000   16.8850000  
H 15.7440000   14.8590000   17.2730000  
H 15.9400000   13.2460000   17.0240000  
H 15.1910000   15.0850000   13.0990000  
H 14.1110000   20.7900000   14.7460000  
H 15.3560000   19.8220000   17.7010000  
H 14.3720000   17.8480000   12.8850000  
