78
100 
C 19.5010000   12.0890000   24.9960000  
C 19.0420000   11.7770000   26.3160000  
C 18.0840000   12.5810000   26.8950000  
C 17.5220000   13.6170000   26.1830000  
C 17.7500000   13.8150000   24.8310000  
C 18.8000000   13.0910000   24.2550000  
C 17.5350000   12.6230000   28.2270000  
C 16.6490000   13.7750000   28.2430000  
N 16.5820000   14.3120000   26.8940000  
O 16.1230000   13.7660000   30.5560000  
C 15.7870000   14.2790000   29.2880000  
O 14.8500000   15.0470000   29.2750000  
O 19.1680000   13.3220000   22.8910000  
O 20.6190000   11.4420000   24.5390000  
H 19.6770000   11.0710000   26.9280000  
H 17.7280000   12.0150000   29.0400000  
H 16.8050000   13.0990000   30.4200000  
H 16.1790000   15.2230000   26.7270000  
H 18.7230000   14.2100000   22.7200000  
H 21.0880000   11.9050000   23.7950000  
C 17.0980000   14.8750000   24.0520000  
C 17.8830000   16.0470000   23.7220000  
C 17.3090000   17.0890000   23.0110000  
C 15.9980000   17.0370000   22.4730000  
C 15.2460000   15.9030000   22.7320000  
C 15.7660000   14.8260000   23.5410000  
C 19.2190000   16.4250000   23.9620000  
C 19.4660000   17.6640000   23.3260000  
N 18.2240000   18.1030000   22.8230000  
O 21.7570000   17.6800000   23.7770000  
C 20.7340000   18.3480000   23.2170000  
O 20.7890000   19.4160000   22.6570000  
O 14.0920000   15.7870000   22.1140000  
O 15.1430000   13.6600000   23.7030000  
H 20.0650000   15.9000000   24.5020000  
H 21.3520000   16.9030000   24.1760000  
H 18.2280000   18.8640000   22.1110000  
H 14.2500000   15.2830000   21.2830000  
H 14.3580000   13.5510000   23.2360000  
C 15.5410000   18.1610000   21.6620000  
C 16.1740000   18.4820000   20.4180000  
C 15.6900000   19.5170000   19.7310000  
C 14.5850000   20.3600000   20.0060000  
C 13.9530000   20.0730000   21.2450000  
C 14.4120000   18.9520000   22.0440000  
C 17.2690000   17.9250000   19.6210000  
C 17.4710000   18.7810000   18.5320000  
N 16.4600000   19.7380000   18.5600000  
O 19.1660000   17.3780000   17.5780000  
C 18.5610000   18.6300000   17.5860000  
O 18.9570000   19.4860000   16.7550000  
O 12.7960000   20.7530000   21.5100000  
O 13.8100000   18.7070000   23.1710000  
H 17.9790000   17.0820000   19.8230000  
H 18.5310000   16.8300000   18.1100000  
H 16.4530000   20.6270000   18.0770000  
H 12.2240000   20.1980000   22.1440000  
H 14.2800000   18.0560000   23.7210000  
C 14.1840000   21.5130000   19.0730000  
C 13.3830000   21.2860000   17.9610000  
C 12.9600000   22.3130000   17.1240000  
C 13.1460000   23.7220000   17.3870000  
C 13.9530000   23.9740000   18.5500000  
C 14.4000000   22.8830000   19.3810000  
C 12.8910000   20.0230000   17.5250000  
C 12.0610000   20.3570000   16.4510000  
N 12.1290000   21.7680000   16.1790000  
O 11.3230000   18.1890000   15.9860000  
C 11.2420000   19.4930000   15.7090000  
O 10.5370000   19.8290000   14.8230000  
O 14.2110000   25.2680000   18.9260000  
O 14.8940000   23.2450000   20.5990000  
H 12.9480000   19.0420000   17.8860000  
H 11.6850000   18.0710000   16.8950000  
H 11.5260000   22.3500000   15.5690000  
H 14.9700000   25.1770000   19.5220000  
H 14.9120000   22.4240000   21.1120000  
H 12.7780000   24.5570000   16.7400000  
