78
100 
C 16.9230000   12.4630000   26.9930000  
C 17.1960000   13.0160000   28.2820000  
C 17.1090000   14.3750000   28.3900000  
C 16.7380000   15.1550000   27.3590000  
C 16.6040000   14.7350000   26.0530000  
C 16.6620000   13.3380000   25.9490000  
C 17.2150000   15.2250000   29.5520000  
C 16.8630000   16.5460000   29.0990000  
N 16.5670000   16.4820000   27.7480000  
O 17.3960000   17.7550000   31.0800000  
C 16.8050000   17.7500000   29.8670000  
O 16.1880000   18.7150000   29.4880000  
O 16.5610000   12.7740000   24.7430000  
O 17.0170000   11.1270000   26.8420000  
H 17.5000000   12.3150000   29.0750000  
H 17.6760000   15.0380000   30.5100000  
H 17.7340000   16.9180000   31.2340000  
H 16.2570000   17.2510000   27.1330000  
H 16.4700000   13.5110000   24.1060000  
H 16.7850000   11.0400000   25.8510000  
C 16.4060000   15.6980000   24.8200000  
C 17.5260000   16.2830000   24.1830000  
C 17.3500000   16.8900000   22.9420000  
C 16.1450000   17.1180000   22.2760000  
C 15.0090000   16.7190000   23.0950000  
C 15.1460000   15.9250000   24.3020000  
C 18.9320000   16.3420000   24.4500000  
C 19.5280000   17.0460000   23.4040000  
N 18.5330000   17.4490000   22.4880000  
O 21.6950000   17.0450000   24.3790000  
C 20.9440000   17.4020000   23.3270000  
O 21.3630000   18.1520000   22.4100000  
O 13.7370000   17.0060000   22.7450000  
O 14.0150000   15.3800000   24.9060000  
H 19.4930000   16.0560000   25.3630000  
H 21.2010000   16.2870000   24.8080000  
H 18.6330000   18.1690000   21.7160000  
H 13.1170000   16.5350000   23.3220000  
H 14.3720000   14.9620000   25.7380000  
C 16.1430000   17.9650000   21.0710000  
C 16.3170000   17.4810000   19.7510000  
C 16.1970000   18.3220000   18.7000000  
C 15.8690000   19.6970000   18.7790000  
C 15.6390000   20.1770000   20.1510000  
C 15.8590000   19.3530000   21.2830000  
C 16.5240000   16.1700000   19.2120000  
C 16.4000000   16.2840000   17.8230000  
N 16.1230000   17.6150000   17.5060000  
O 16.4400000   13.9760000   17.5070000  
C 16.4280000   15.1560000   16.8960000  
O 16.3030000   15.2560000   15.6480000  
O 15.3970000   21.4810000   20.4960000  
O 15.5700000   19.7510000   22.5780000  
H 16.8110000   15.2650000   19.7540000  
H 16.4770000   14.2510000   18.4710000  
H 15.8650000   17.9210000   16.5610000  
H 15.2100000   21.4870000   21.4570000  
H 15.7450000   19.0260000   23.1950000  
C 15.6390000   20.5890000   17.6150000  
C 14.3630000   20.9370000   17.2250000  
C 14.0190000   21.6590000   16.0780000  
C 15.0500000   22.0630000   15.2070000  
C 16.3870000   21.5900000   15.4200000  
C 16.6590000   20.8610000   16.6400000  
C 13.1120000   20.6020000   17.9040000  
C 12.0960000   21.1270000   17.1580000  
N 12.6500000   21.7810000   16.0110000  
O 10.2880000   20.4730000   18.6470000  
C 10.5670000   21.0970000   17.4580000  
O  9.7950000   21.6750000   16.7620000  
O 17.3260000   21.8190000   14.4810000  
O 17.9160000   20.4530000   16.9320000  
H 12.9890000   20.0640000   18.8840000  
H 11.2230000   20.1040000   18.9270000  
H 12.1290000   22.3780000   15.4310000  
H 18.0990000   21.4720000   14.9020000  
H 17.9170000   20.0930000   17.8880000  
H 14.7840000   22.5750000   14.3110000  
