78
100 
C 17.0450000   19.9000000   28.8680000  
C 15.8080000   20.1130000   29.5210000  
C 14.7020000   20.1580000   28.6960000  
C 14.7410000   19.9030000   27.3400000  
C 15.9080000   19.4430000   26.7260000  
C 17.0860000   19.4880000   27.5270000  
C 13.3010000   20.4880000   28.9500000  
C 12.5830000   20.3350000   27.7790000  
N 13.4760000   19.9480000   26.7250000  
O 10.4940000   20.5410000   28.7720000  
C 11.1480000   20.5150000   27.6020000  
O 10.5540000   20.4040000   26.5470000  
O 18.3160000   19.1310000   27.0030000  
O 18.1440000   19.8590000   29.6520000  
H 15.7950000   20.2650000   30.5030000  
H 12.9420000   20.8280000   29.8850000  
H 11.2110000   20.7390000   29.3780000  
H 13.2210000   19.4890000   25.8770000  
H 18.1500000   19.0110000   26.0140000  
H 18.7790000   19.6900000   28.9390000  
C 15.8860000   18.9700000   25.3120000  
C 16.5730000   19.4910000   24.1920000  
C 16.4420000   18.9300000   22.9800000  
C 15.7120000   17.7530000   22.6950000  
C 15.1980000   17.0880000   23.8420000  
C 15.2530000   17.6770000   25.1390000  
C 17.3520000   20.7120000   24.0150000  
C 17.7790000   20.7210000   22.6510000  
N 17.2050000   19.6280000   22.0560000  
O 18.9190000   22.8900000   22.6930000  
C 18.6210000   21.7630000   21.9970000  
O 19.0650000   21.6530000   20.8630000  
O 14.5900000   15.9520000   23.7290000  
O 14.6800000   17.0820000   26.2350000  
H 17.5360000   21.4530000   24.7100000  
H 18.7240000   22.6910000   23.6050000  
H 17.3210000   19.4010000   21.0940000  
H 14.1440000   15.7150000   24.6050000  
H 14.8500000   17.6760000   26.9960000  
C 15.6460000   17.2920000   21.2780000  
C 16.8310000   16.9550000   20.5560000  
C 16.8020000   16.5270000   19.2720000  
C 15.6510000   16.4680000   18.5230000  
C 14.4820000   16.8400000   19.1880000  
C 14.4510000   17.2060000   20.5520000  
C 18.2360000   17.0420000   20.9990000  
C 18.9700000   16.8140000   19.8620000  
N 18.0820000   16.5170000   18.7850000  
O 21.0210000   17.1940000   20.8390000  
C 20.4240000   16.7590000   19.7910000  
O 21.0660000   16.4520000   18.7360000  
O 13.3030000   16.4710000   18.6360000  
O 13.2760000   17.5860000   21.1560000  
H 18.6390000   17.2300000   21.9990000  
H 20.3800000   17.0000000   21.4990000  
H 18.3950000   15.9560000   18.0030000  
H 12.6750000   17.0080000   19.1670000  
H 13.3570000   17.9140000   22.0870000  
C 15.6630000   16.0400000   17.0700000  
C 16.2370000   14.8370000   16.6510000  
C 16.2550000   14.4830000   15.3050000  
C 15.6190000   15.2100000   14.3400000  
C 14.9750000   16.4440000   14.7350000  
C 15.0170000   16.8340000   16.0790000  
C 16.8720000   13.7750000   17.3860000  
C 17.1770000   12.7940000   16.4480000  
N 16.7810000   13.2460000   15.1920000  
O 18.3980000   11.4790000   17.9120000  
C 17.9200000   11.5310000   16.7070000  
O 18.0790000   10.6770000   15.9110000  
O 14.3440000   17.2160000   13.8470000  
O 14.5560000   18.0850000   16.4480000  
H 16.9240000   13.6250000   18.5150000  
H 18.1540000   12.1970000   18.4560000  
H 16.9720000   12.7240000   14.3270000  
H 14.1020000   17.9350000   14.4330000  
H 14.5200000   18.1130000   17.4220000  
H 15.5720000   14.8250000   13.2710000  
