78
100 
C 17.7870000   20.0600000   28.7540000  
C 18.3550000   18.9650000   29.4670000  
C 18.4970000   17.7130000   28.8590000  
C 18.0840000   17.5920000   27.5940000  
C 17.6140000   18.6500000   26.7680000  
C 17.4490000   19.8910000   27.3850000  
C 19.3130000   16.5780000   29.1410000  
C 19.2460000   15.7350000   28.0680000  
N 18.4990000   16.3790000   27.0960000  
O 20.4390000   13.8500000   28.8910000  
C 19.8230000   14.3970000   27.8120000  
O 19.7380000   13.7170000   26.8410000  
O 17.1420000   20.9320000   26.5580000  
O 17.6080000   21.3160000   29.2580000  
H 18.8790000   19.0830000   30.3660000  
H 19.7800000   16.4890000   30.1460000  
H 20.5270000   14.5810000   29.5650000  
H 18.3010000   16.0540000   26.2140000  
H 17.1840000   20.5540000   25.6600000  
H 17.5750000   21.9370000   28.5320000  
C 17.2690000   18.4420000   25.3370000  
C 16.1440000   17.7230000   24.9780000  
C 15.8070000   17.5510000   23.6430000  
C 16.5600000   17.9680000   22.5070000  
C 17.7100000   18.6060000   22.8880000  
C 18.1120000   18.8250000   24.2540000  
C 15.2210000   16.9400000   25.7720000  
C 14.2970000   16.4060000   24.8800000  
N 14.7090000   16.7420000   23.5330000  
O 12.7830000   15.6290000   26.5210000  
C 13.1370000   15.6470000   25.2450000  
O 12.4670000   14.9630000   24.4630000  
O 18.4900000   18.9820000   21.8230000  
O 19.1950000   19.6350000   24.4720000  
H 15.1920000   16.8100000   26.8540000  
H 13.4310000   16.1270000   27.0430000  
H 14.3330000   16.1900000   22.7430000  
H 19.2370000   19.4420000   22.2410000  
H 19.2360000   19.9980000   25.3650000  
C 16.1580000   17.5720000   21.1300000  
C 15.4330000   18.4950000   20.3350000  
C 14.9320000   18.1680000   19.1310000  
C 15.2270000   16.9530000   18.5010000  
C 15.8910000   15.9870000   19.2870000  
C 16.4150000   16.3350000   20.5590000  
C 15.0890000   19.8430000   20.6300000  
C 14.3410000   20.2540000   19.4960000  
N 14.2030000   19.2120000   18.5560000  
O 13.8440000   22.3940000   20.2980000  
C 13.8310000   21.5390000   19.2180000  
O 13.3690000   21.8680000   18.1310000  
O 16.0880000   14.7670000   18.9030000  
O 17.1220000   15.4000000   21.2750000  
H 15.4310000   20.5200000   21.4230000  
H 14.3590000   21.9650000   21.0340000  
H 13.7410000   19.1290000   17.5700000  
H 16.3560000   14.1730000   19.6840000  
H 17.4690000   15.7740000   22.0700000  
C 14.6490000   16.6440000   17.1760000  
C 15.2150000   17.1590000   16.0100000  
C 14.6490000   16.8660000   14.7680000  
C 13.6580000   15.8870000   14.6420000  
C 13.1300000   15.2990000   15.8480000  
C 13.6290000   15.7270000   17.0810000  
C 16.2010000   18.1760000   15.7310000  
C 16.1920000   18.4340000   14.3640000  
N 15.2210000   17.6160000   13.7430000  
O 17.7600000   20.1730000   14.5410000  
C 16.9740000   19.4600000   13.6840000  
O 16.8550000   19.7560000   12.5230000  
O 12.1820000   14.2620000   15.8660000  
O 13.0560000   15.2170000   18.2150000  
H 16.8260000   18.5440000   16.5380000  
H 17.6360000   19.6410000   15.3410000  
H 14.9910000   17.6520000   12.7850000  
H 12.4660000   13.6850000   16.5830000  
H 13.5080000   15.6390000   18.9780000  
H 13.2300000   15.6700000   13.6580000  
