78
100 
C 20.7200000   16.6040000   27.5120000  
C 19.9720000   16.4000000   28.7170000  
C 18.5840000   16.2240000   28.6540000  
C 17.9620000   16.2430000   27.4840000  
C 18.6080000   16.4200000   26.2100000  
C 20.0350000   16.5020000   26.2640000  
C 17.6500000   15.9310000   29.7340000  
C 16.4700000   15.8010000   29.0540000  
N 16.6330000   15.9990000   27.6750000  
O 15.1340000   15.0040000   30.8740000  
C 15.1360000   15.3450000   29.5620000  
O 14.1350000   15.4900000   28.9140000  
O 20.6990000   16.6140000   25.0930000  
O 22.0760000   16.6630000   27.6680000  
H 20.5430000   16.2380000   29.5960000  
H 17.7800000   15.9150000   30.8300000  
H 16.0600000   15.1410000   31.1200000  
H 15.9450000   15.8110000   27.0230000  
H 20.0480000   16.4770000   24.3710000  
H 22.4470000   16.6540000   26.7090000  
C 17.8720000   16.5610000   24.9340000  
C 17.0960000   17.7490000   24.7040000  
C 16.5070000   18.0050000   23.5310000  
C 16.4980000   17.2170000   22.4620000  
C 17.2200000   16.0050000   22.6170000  
C 17.9650000   15.7140000   23.8200000  
C 16.8290000   18.7840000   25.6270000  
C 16.0830000   19.7470000   24.9650000  
N 15.7930000   19.2370000   23.6490000  
O 16.0860000   21.2410000   26.7610000  
C 15.5900000   21.0070000   25.5160000  
O 14.8750000   21.7860000   24.9040000  
O 17.3020000   15.0620000   21.6040000  
O 18.8230000   14.6850000   23.8210000  
H 17.1540000   18.7950000   26.7010000  
H 16.5220000   20.4000000   27.0280000  
H 15.0660000   19.5230000   22.9710000  
H 16.8810000   15.4850000   20.8330000  
H 18.7260000   14.4140000   22.8710000  
C 15.7680000   17.5560000   21.1280000  
C 15.9800000   18.7140000   20.4350000  
C 15.3540000   18.8470000   19.2060000  
C 14.4880000   17.9580000   18.6470000  
C 14.0660000   16.8660000   19.4460000  
C 14.6520000   16.7420000   20.7180000  
C 16.8220000   19.8910000   20.6300000  
C 16.6830000   20.6850000   19.4610000  
N 15.7480000   20.0100000   18.5900000  
O 18.2510000   22.4750000   19.8310000  
C 17.3270000   21.8880000   19.0290000  
O 16.9930000   22.5040000   18.0590000  
O 13.1460000   15.9470000   19.0290000  
O 14.3020000   15.6590000   21.4010000  
H 17.5190000   19.9640000   21.4500000  
H 18.2310000   21.8820000   20.5780000  
H 15.6010000   20.2900000   17.5800000  
H 12.9750000   16.1890000   18.0880000  
H 13.4230000   15.5110000   21.0140000  
C 13.7620000   18.1730000   17.2760000  
C 14.1630000   17.5300000   16.1060000  
C 13.4510000   17.6530000   14.9180000  
C 12.3030000   18.4570000   14.8350000  
C 11.8810000   19.1180000   16.0090000  
C 12.6290000   19.0400000   17.2110000  
C 15.2630000   16.5710000   15.7760000  
C 15.2380000   16.2980000   14.3650000  
N 14.1260000   16.9480000   13.8950000  
O 17.2560000   15.0360000   14.2540000  
C 16.2160000   15.5420000   13.5550000  
O 16.0680000   15.3940000   12.3680000  
O 10.7470000   19.9340000   15.9710000  
O 12.1080000   19.7080000   18.3290000  
H 15.9980000   16.2100000   16.3890000  
H 17.0530000   15.1680000   15.1850000  
H 13.9020000   16.8800000   12.9290000  
H 10.6240000   20.1790000   16.9330000  
H 12.6940000   19.4810000   19.0470000  
H 11.7390000   18.5720000   13.9290000  
