78
100 
C 16.9830000   15.4790000   28.8520000  
C 17.0510000   16.5540000   29.7740000  
C 17.0990000   17.8830000   29.2420000  
C 16.7800000   18.0460000   27.9580000  
C 16.4860000   17.0770000   27.0090000  
C 16.5870000   15.7580000   27.5190000  
C 17.3420000   19.1480000   29.8550000  
C 17.1590000   20.1030000   28.8330000  
N 16.7970000   19.4220000   27.6770000  
O 17.6530000   22.0440000   30.1570000  
C 17.1410000   21.5300000   29.0120000  
O 16.7950000   22.2700000   28.0620000  
O 16.4370000   14.7160000   26.5910000  
O 17.0480000   14.2240000   29.3190000  
H 17.2320000   16.2860000   30.7680000  
H 17.6390000   19.2720000   30.8710000  
H 17.7710000   21.3000000   30.6770000  
H 16.5260000   19.8150000   26.7780000  
H 16.5810000   15.1060000   25.7030000  
H 16.7500000   13.6650000   28.5910000  
C 16.2530000   17.3360000   25.5200000  
C 17.2060000   17.1530000   24.5730000  
C 16.9990000   17.3570000   23.2620000  
C 15.7950000   17.9180000   22.7400000  
C 14.7770000   18.0940000   23.7330000  
C 14.9870000   17.8260000   25.0770000  
C 18.6430000   16.8650000   24.6770000  
C 19.1630000   16.9050000   23.3440000  
N 18.1530000   17.2800000   22.4630000  
O 21.4960000   16.7990000   23.8290000  
C 20.5310000   16.8280000   22.9000000  
O 20.7680000   16.6560000   21.7320000  
O 13.5670000   18.4810000   23.2780000  
O 13.9060000   17.9810000   25.9290000  
H 19.2650000   16.8940000   25.5620000  
H 21.0280000   17.1510000   24.6550000  
H 18.2290000   17.2490000   21.4650000  
H 12.9830000   18.7640000   23.9900000  
H 14.2610000   17.7670000   26.8460000  
C 15.5910000   18.1320000   21.2870000  
C 15.6580000   17.0400000   20.3220000  
C 15.7310000   17.3810000   18.9820000  
C 15.4990000   18.6650000   18.4140000  
C 15.2880000   19.6860000   19.3550000  
C 15.3380000   19.3880000   20.7450000  
C 15.9190000   15.6110000   20.3990000  
C 16.1430000   15.1130000   19.1220000  
N 16.0270000   16.2380000   18.2670000  
O 17.1110000   13.0990000   19.7110000  
C 16.6070000   13.8010000   18.7050000  
O 16.7270000   13.4510000   17.5730000  
O 15.1690000   20.9870000   18.9540000  
O 15.2510000   20.4200000   21.6570000  
H 15.9930000   15.0430000   21.2810000  
H 16.8690000   13.6140000   20.4500000  
H 16.0050000   16.1940000   17.2450000  
H 14.9460000   21.5100000   19.7370000  
H 15.2800000   20.0390000   22.5920000  
C 15.4890000   18.8150000   16.9180000  
C 14.5280000   18.0810000   16.1280000  
C 14.4970000   18.1740000   14.7390000  
C 15.3920000   19.0260000   14.0910000  
C 16.3310000   19.7510000   14.8240000  
C 16.3870000   19.5950000   16.2220000  
C 13.4050000   17.3490000   16.4810000  
C 12.8090000   16.8390000   15.3610000  
N 13.3990000   17.5010000   14.2840000  
O 11.2020000   15.4590000   16.5120000  
C 11.6890000   15.8330000   15.2750000  
O 11.1970000   15.3660000   14.2680000  
O 17.2200000   20.5160000   14.1120000  
O 17.3920000   20.1830000   16.8380000  
H 13.1710000   17.0880000   17.5520000  
H 11.8170000   15.9280000   17.1020000  
H 13.2360000   17.3780000   13.3570000  
H 17.6490000   21.0430000   14.8430000  
H 17.0130000   20.0760000   17.7770000  
H 15.3350000   19.0800000   13.0660000  
