78
100 
C 10.1240000   19.6000000   25.9280000  
C 10.1510000   21.0030000   26.1690000  
C 11.2640000   21.6830000   25.8050000  
C 12.2640000   21.1270000   25.0880000  
C 12.1810000   19.8120000   24.6000000  
C 11.0980000   19.0710000   25.0720000  
C 11.6490000   23.0490000   25.9640000  
C 12.8060000   23.2720000   25.1470000  
N 13.1990000   22.0160000   24.6450000  
O 13.2950000   25.4910000   25.8960000  
C 13.6400000   24.5180000   25.0640000  
O 14.6210000   24.5980000   24.4100000  
O 10.9620000   17.7370000   24.7190000  
O  8.9860000   18.9380000   26.2450000  
H  9.3640000   21.5240000   26.6730000  
H 11.1010000   23.8210000   26.4360000  
H 12.5350000   25.1880000   26.3270000  
H 13.9700000   21.8480000   24.0190000  
H 11.8590000   17.4230000   24.4250000  
H  9.1760000   18.0710000   25.8520000  
C 13.2220000   19.1650000   23.6550000  
C 14.5610000   19.2390000   24.0010000  
C 15.5230000   18.7340000   23.1600000  
C 15.2840000   17.9760000   21.9150000  
C 13.8860000   17.9670000   21.5700000  
C 12.8530000   18.5100000   22.3910000  
C 15.2610000   19.8510000   25.0900000  
C 16.6290000   19.7260000   24.7470000  
N 16.8060000   19.0240000   23.5350000  
O 17.3510000   21.0740000   26.6210000  
C 17.6990000   20.4150000   25.5030000  
O 18.8920000   20.4760000   25.1140000  
O 13.5730000   17.3820000   20.3800000  
O 11.5770000   18.5420000   21.9110000  
H 14.8170000   20.3210000   26.0080000  
H 16.4220000   20.9950000   26.7130000  
H 17.6880000   18.4840000   23.2810000  
H 12.6060000   17.2860000   20.3440000  
H 11.0490000   19.0980000   22.5670000  
C 16.4290000   17.5580000   20.9930000  
C 17.3030000   16.5690000   21.3970000  
C 18.2810000   16.1100000   20.5910000  
C 18.4490000   16.4320000   19.2430000  
C 17.6260000   17.5000000   18.8140000  
C 16.6200000   18.0750000   19.6660000  
C 17.1950000   15.6970000   22.5430000  
C 18.1810000   14.7180000   22.3480000  
N 18.7960000   14.9440000   21.1190000  
O 17.9260000   13.6300000   24.3750000  
C 18.5100000   13.5910000   23.2340000  
O 19.2690000   12.7410000   22.8480000  
O 17.6510000   17.9220000   17.5100000  
O 15.7620000   18.9760000   19.1040000  
H 16.4370000   15.7910000   23.3630000  
H 17.5150000   14.5180000   24.2920000  
H 19.4440000   14.4070000   20.6830000  
H 16.7500000   18.3710000   17.3700000  
H 15.3210000   19.4660000   19.8540000  
C 19.3690000   15.7550000   18.2620000  
C 19.3950000   14.3240000   18.0270000  
C 20.3060000   13.7890000   17.1720000  
C 21.2740000   14.5070000   16.5570000  
C 21.3330000   15.9010000   16.8170000  
C 20.4380000   16.5160000   17.6800000  
C 18.4050000   13.2890000   18.3000000  
C 18.8010000   12.1360000   17.6640000  
N 19.9740000   12.4940000   16.9590000  
O 16.9080000   10.8460000   18.3370000  
C 18.0820000   10.8510000   17.6800000  
O 18.4950000    9.8780000   17.0670000  
O 22.3060000   16.6020000   16.0930000  
O 20.6070000   17.9110000   17.8600000  
H 17.5170000   13.4810000   18.8270000  
H 16.6840000   11.7490000   18.5450000  
H 20.3440000   11.8580000   16.2350000  
H 22.2160000   17.4630000   16.5480000  
H 19.6880000   18.3340000   18.0370000  
H 21.9350000   14.0020000   15.8930000  
