78
100 
C  9.7040000   14.9770000   19.7280000  
C  8.6140000   15.8840000   19.6650000  
C  8.8870000   17.2640000   19.9250000  
C 10.1430000   17.6810000   20.2610000  
C 11.2480000   16.7430000   20.4480000  
C 10.9920000   15.3800000   20.0610000  
C  8.0540000   18.4840000   19.8890000  
C  8.8630000   19.4880000   20.3400000  
N 10.1480000   18.9810000   20.7190000  
O  7.3250000   21.2370000   20.2810000  
C  8.5750000   20.8940000   20.5760000  
O  9.3370000   21.6820000   21.0560000  
O 11.9790000   14.4560000   20.0350000  
O  9.5180000   13.6530000   19.4580000  
H  7.5640000   15.7310000   19.3770000  
H  7.0260000   18.6450000   19.5630000  
H  6.9200000   20.4780000   19.8170000  
H 10.8410000   19.4880000   21.2690000  
H 12.8320000   14.7380000   20.4670000  
H 10.3620000   13.3620000   19.7190000  
C 12.5750000   17.1930000   20.9000000  
C 13.2350000   16.6250000   22.0380000  
C 14.4580000   17.0710000   22.4550000  
C 15.2110000   18.0510000   21.8190000  
C 14.6260000   18.6240000   20.6730000  
C 13.3370000   18.2530000   20.2410000  
C 12.8500000   15.6030000   22.9740000  
C 13.8840000   15.3970000   23.8050000  
N 14.9520000   16.2690000   23.4730000  
O 12.7230000   13.9170000   25.1370000  
C 13.9210000   14.4470000   24.9300000  
O 14.9010000   14.1750000   25.5350000  
O 15.2980000   19.5500000   19.9100000  
O 12.8940000   18.9910000   19.1220000  
H 11.9180000   15.0050000   22.8490000  
H 12.2070000   14.1180000   24.3670000  
H 15.7680000   16.5520000   23.9570000  
H 14.7070000   19.9910000   19.2500000  
H 12.1680000   18.5460000   18.6830000  
C 16.6380000   18.3410000   22.2240000  
C 17.6250000   17.3480000   22.1440000  
C 18.9410000   17.6330000   22.3590000  
C 19.4140000   18.8770000   22.8680000  
C 18.4210000   19.9490000   22.9460000  
C 17.0920000   19.6760000   22.5850000  
C 17.6110000   15.9940000   21.7680000  
C 18.9240000   15.5130000   21.8480000  
N 19.7890000   16.5410000   22.1690000  
O 18.3190000   13.2000000   21.7220000  
C 19.3480000   14.1290000   21.8380000  
O 20.4950000   13.7330000   21.9880000  
O 18.7590000   21.2290000   23.3390000  
O 16.0990000   20.6480000   22.5560000  
H 16.7760000   15.3810000   21.4560000  
H 17.5200000   13.7430000   21.8530000  
H 20.8290000   16.5060000   22.2290000  
H 17.9300000   21.7730000   23.2340000  
H 15.2160000   20.3080000   22.5680000  
C 20.8620000   19.0550000   23.3470000  
C 21.9420000   18.9590000   22.4210000  
C 23.2760000   19.0800000   22.8200000  
C 23.6270000   19.3330000   24.1770000  
C 22.5000000   19.4470000   25.1400000  
C 21.1540000   19.3000000   24.7490000  
C 22.0290000   18.7650000   21.0030000  
C 23.3490000   18.7580000   20.5900000  
N 24.1540000   18.9450000   21.7260000  
O 22.7790000   18.3160000   18.3070000  
C 23.8020000   18.3660000   19.2380000  
O 24.9060000   18.0970000   18.8510000  
O 22.7290000   19.6970000   26.4540000  
O 20.1330000   19.5230000   25.6850000  
H 21.1790000   18.5690000   20.4350000  
H 22.0780000   18.6620000   18.8780000  
H 25.1530000   19.1020000   21.7710000  
H 21.8190000   19.6650000   26.9030000  
H 19.3880000   19.8550000   25.1640000  
H 24.5940000   19.3840000   24.5280000  
