78
100 
C 14.9000000   11.8680000   26.6400000  
C 16.0880000   11.5790000   27.3660000  
C 17.2010000   12.4010000   27.1500000  
C 17.1050000   13.4180000   26.2370000  
C 15.9370000   13.7950000   25.5150000  
C 14.8160000   12.9880000   25.7950000  
C 18.5130000   12.3050000   27.5400000  
C 19.2070000   13.3180000   26.8230000  
N 18.2680000   14.0280000   26.0640000  
O 21.2900000   12.6980000   27.7530000  
C 20.6450000   13.5250000   26.8800000  
O 21.2530000   14.2370000   26.1540000  
O 13.7260000   13.1700000   25.0290000  
O 13.7710000   11.1030000   26.8550000  
H 16.1720000   10.7470000   28.0400000  
H 18.9960000   11.5010000   27.9980000  
H 20.5220000   12.1730000   28.1060000  
H 18.5350000   14.7590000   25.4180000  
H 14.0000000   13.7440000   24.3120000  
H 13.0740000   11.4270000   26.3630000  
C 15.8770000   14.9550000   24.4280000  
C 16.7840000   15.0040000   23.3470000  
C 16.8250000   16.1740000   22.5130000  
C 15.8670000   17.2460000   22.5210000  
C 14.8790000   17.1130000   23.5440000  
C 14.9540000   16.0230000   24.4710000  
C 17.9390000   14.3260000   23.0060000  
C 18.6750000   14.9760000   21.9740000  
N 17.9240000   16.1300000   21.7150000  
O 20.3690000   13.4090000   21.8610000  
C 20.0000000   14.5880000   21.4930000  
O 20.6840000   15.1880000   20.6660000  
O 13.9940000   18.1150000   23.7940000  
O 14.0060000   15.9750000   25.4200000  
H 18.1900000   13.3180000   23.3940000  
H 19.7110000   13.0890000   22.5420000  
H 18.0980000   16.7580000   20.9970000  
H 13.5750000   17.9870000   24.6510000  
H 14.3370000   15.3720000   26.0710000  
C 15.7790000   18.3200000   21.4970000  
C 14.8450000   18.3000000   20.4430000  
C 14.9360000   19.2470000   19.4800000  
C 15.8610000   20.3350000   19.4620000  
C 16.7680000   20.3560000   20.4840000  
C 16.7770000   19.3560000   21.4540000  
C 13.6880000   17.4780000   19.9660000  
C 13.1750000   18.0760000   18.8110000  
N 14.0550000   19.0550000   18.4640000  
O 11.0790000   16.9090000   18.3990000  
C 11.9830000   17.7810000   17.9690000  
O 11.7760000   18.4490000   16.9580000  
O 17.8230000   21.2650000   20.5220000  
O 17.7680000   19.4980000   22.3910000  
H 13.2900000   16.5850000   20.4890000  
H 11.3800000   16.6720000   19.2640000  
H 14.0100000   19.6190000   17.6050000  
H 18.3720000   21.0120000   21.2600000  
H 17.6190000   18.9020000   23.1350000  
C 15.8620000   21.3230000   18.3100000  
C 15.5410000   22.6630000   18.5660000  
C 15.3240000   23.4990000   17.5240000  
C 15.6750000   23.1630000   16.2340000  
C 16.1410000   21.8910000   15.9760000  
C 16.2150000   20.9230000   17.0110000  
C 15.1620000   23.3220000   19.7750000  
C 14.7270000   24.6030000   19.4080000  
N 14.8240000   24.6760000   18.0080000  
O 14.2950000   25.4300000   21.5220000  
C 14.2290000   25.7230000   20.2300000  
O 13.7580000   26.7380000   19.7320000  
O 16.5880000   21.5250000   14.7710000  
O 16.5690000   19.6840000   16.6400000  
H 15.1910000   23.0820000   20.8290000  
H 14.7170000   24.6410000   21.4900000  
H 14.5720000   25.4730000   17.3670000  
H 16.9760000   20.5980000   14.7830000  
H 16.4530000   19.1270000   17.3620000  
H 15.6960000   23.8100000   15.4010000  
