78
100 
C 10.4350000   13.1750000   22.9260000  
C  9.9770000   12.5610000   21.8100000  
C 10.7370000   12.7290000   20.6990000  
C 11.8890000   13.5600000   20.6470000  
C 12.3700000   14.2770000   21.7790000  
C 11.5200000   14.1510000   22.9300000  
C 10.6290000   12.2350000   19.3080000  
C 11.6480000   12.7780000   18.5890000  
N 12.4400000   13.5480000   19.4440000  
O 11.2180000   11.4110000   16.6260000  
C 11.9790000   12.4360000   17.1200000  
O 12.8410000   12.9310000   16.4090000  
O 11.7970000   14.9370000   24.0210000  
O  9.7380000   12.9180000   24.0620000  
H  9.2020000   11.8080000   21.7950000  
H  9.8140000   11.5990000   18.9510000  
H 10.4460000   11.3500000   17.2240000  
H 13.2770000   14.1100000   19.1580000  
H 12.6330000   15.5280000   23.8260000  
H  9.9350000   13.4620000   24.8610000  
C 13.5280000   15.2670000   21.7240000  
C 13.4280000   16.5140000   20.9920000  
C 14.5190000   17.3130000   20.9200000  
C 15.7360000   17.0530000   21.5740000  
C 15.8310000   15.8250000   22.3070000  
C 14.7740000   14.9610000   22.3900000  
C 12.4310000   17.1290000   20.0820000  
C 12.9500000   18.2800000   19.6240000  
N 14.2660000   18.3710000   20.1060000  
O 11.0210000   19.0360000   18.3440000  
C 12.3180000   19.2530000   18.7820000  
O 12.9280000   20.2410000   18.4510000  
O 17.0080000   15.5700000   22.9500000  
O 14.8300000   13.7430000   23.0820000  
H 11.3690000   16.8210000   19.9540000  
H 10.9040000   18.1050000   18.5130000  
H 14.9270000   19.1260000   19.8460000  
H 16.9710000   14.6300000   23.1580000  
H 13.9680000   13.2940000   22.9450000  
C 16.8870000   18.0430000   21.6170000  
C 16.7530000   19.3700000   22.1560000  
C 17.8280000   20.2300000   22.2890000  
C 19.1550000   19.8820000   22.0240000  
C 19.3190000   18.5520000   21.5100000  
C 18.1950000   17.7600000   21.1750000  
C 15.5920000   20.0530000   22.7210000  
C 16.0720000   21.2940000   23.1630000  
N 17.4400000   21.3730000   22.9950000  
O 14.0610000   22.0790000   24.2970000  
C 15.3460000   22.3890000   23.8680000  
O 15.9440000   23.4310000   24.1150000  
O 20.5990000   18.1790000   21.0770000  
O 18.4210000   16.5540000   20.5400000  
H 14.5660000   19.7710000   22.7640000  
H 13.9100000   21.2260000   23.8560000  
H 18.0180000   22.0260000   23.4280000  
H 20.6050000   17.3300000   20.5710000  
H 17.5270000   16.1820000   20.4230000  
C 20.3710000   20.7440000   22.3870000  
C 21.2790000   20.2780000   23.2910000  
C 22.4590000   20.9430000   23.5320000  
C 22.7500000   22.2000000   22.9750000  
C 21.7300000   22.7640000   22.1730000  
C 20.5590000   22.0670000   21.9060000  
C 21.3260000   19.0500000   24.1220000  
C 22.4730000   19.1090000   24.8380000  
N 23.1980000   20.2590000   24.4180000  
O 22.0620000   17.2210000   26.2760000  
C 22.9220000   18.2220000   25.9670000  
O 24.0080000   18.4320000   26.4620000  
O 21.9900000   23.9120000   21.4960000  
O 19.5380000   22.6540000   21.1830000  
H 20.5980000   18.3170000   24.2800000  
H 21.2570000   17.5470000   25.7990000  
H 24.0850000   20.5490000   24.7690000  
H 21.1760000   24.1880000   21.0150000  
H 18.9320000   21.8750000   20.9580000  
H 23.7060000   22.7680000   23.2290000  
