78
100 
C  9.7920000   15.2680000   18.3800000  
C  8.6800000   15.6480000   19.1180000  
C  8.9120000   16.3090000   20.3790000  
C 10.1540000   16.7330000   20.7100000  
C 11.2920000   16.5140000   19.9730000  
C 11.0900000   15.7060000   18.8120000  
C  7.9870000   16.7090000   21.4060000  
C  8.7520000   17.4850000   22.2900000  
N 10.1130000   17.4200000   21.8810000  
O  6.8700000   18.2010000   23.4910000  
C  8.2380000   18.2470000   23.4290000  
O  8.9010000   18.7910000   24.2850000  
O 12.1520000   15.3560000   18.0130000  
O  9.6430000   14.5620000   17.2540000  
H  7.6780000   15.4480000   18.7880000  
H  6.9310000   16.4090000   21.5420000  
H  6.6230000   17.9150000   22.6070000  
H 10.8650000   17.8160000   22.3550000  
H 12.9690000   15.7560000   18.4220000  
H 10.5100000   14.6350000   16.8410000  
C 12.6580000   16.9650000   20.4550000  
C 13.6230000   16.0730000   21.0690000  
C 14.7940000   16.5360000   21.6480000  
C 15.2650000   17.8500000   21.6760000  
C 14.3900000   18.7660000   21.0930000  
C 13.1440000   18.3310000   20.4850000  
C 13.6120000   14.6480000   21.2150000  
C 14.8540000   14.3410000   21.7950000  
N 15.4960000   15.5280000   22.1710000  
O 14.5670000   11.9610000   21.6700000  
C 15.4860000   13.0260000   21.7600000  
O 16.6690000   12.9020000   21.8530000  
O 14.6680000   20.1120000   21.1970000  
O 12.3550000   19.3410000   19.9530000  
H 12.9390000   13.9160000   20.7210000  
H 13.6500000   12.2310000   21.6340000  
H 16.3650000   15.5360000   22.5880000  
H 13.8260000   20.4770000   20.7830000  
H 11.5650000   19.0420000   19.5970000  
C 16.6420000   18.1760000   22.2400000  
C 17.8130000   17.5330000   21.8490000  
C 19.0050000   17.7920000   22.4070000  
C 19.2080000   18.7630000   23.3990000  
C 18.0680000   19.4360000   23.8270000  
C 16.7700000   19.0860000   23.3040000  
C 18.1080000   16.5690000   20.7970000  
C 19.4840000   16.2730000   20.8640000  
N 19.9910000   17.0640000   21.8830000  
O 19.3910000   14.5310000   19.2090000  
C 20.1820000   15.2790000   20.0640000  
O 21.4150000   15.0670000   20.0800000  
O 18.0490000   20.2200000   24.9440000  
O 15.6970000   19.5910000   23.9180000  
H 17.3640000   16.1230000   20.1280000  
H 18.4830000   14.8050000   19.3200000  
H 20.9260000   17.2730000   22.0100000  
H 17.1250000   20.3780000   25.0740000  
H 15.0390000   19.6230000   23.1960000  
C 20.5820000   19.1100000   23.9930000  
C 21.4140000   20.0410000   23.2790000  
C 22.6890000   20.4350000   23.7040000  
C 23.2680000   19.9300000   24.8570000  
C 22.4240000   18.9310000   25.5250000  
C 21.1270000   18.5040000   25.0950000  
C 21.1320000   20.8350000   22.0950000  
C 22.2640000   21.5830000   21.8000000  
N 23.1950000   21.3960000   22.8380000  
O 21.4860000   22.4410000   19.6480000  
C 22.4400000   22.5450000   20.6740000  
O 23.3700000   23.3580000   20.5750000  
O 22.9630000   18.3210000   26.6080000  
O 20.5190000   17.4050000   25.6980000  
H 20.2590000   20.8920000   21.4740000  
H 20.9770000   21.6680000   19.8460000  
H 24.1340000   21.7780000   22.9120000  
H 22.4880000   17.4520000   26.9180000  
H 19.7040000   17.2360000   25.2850000  
H 24.2040000   20.1600000   25.2620000  
