78
100 
C 17.6040000   10.7500000   22.6840000  
C 16.6750000    9.8460000   22.2000000  
C 15.5410000   10.2950000   21.4730000  
C 15.3520000   11.6780000   21.3350000  
C 16.2390000   12.6190000   21.7960000  
C 17.3690000   12.1510000   22.5000000  
C 14.3220000    9.6930000   20.9610000  
C 13.5700000   10.7120000   20.4330000  
N 14.2020000   11.9460000   20.6740000  
O 11.7550000    9.3170000   19.6680000  
C 12.2840000   10.5710000   19.7110000  
O 11.6990000   11.4640000   19.2170000  
O 18.2850000   13.1330000   22.9590000  
O 18.7420000   10.2690000   23.2950000  
H 16.9000000    8.7590000   22.3110000  
H 14.1470000    8.5760000   20.9020000  
H 12.4200000    8.6970000   20.0280000  
H 13.9220000   12.7950000   20.2140000  
H 18.0450000   13.9600000   22.5330000  
H 19.2450000   11.0030000   23.6720000  
C 15.9200000   14.0470000   21.5920000  
C 15.3700000   14.8310000   22.6430000  
C 15.3560000   16.1920000   22.5250000  
C 15.5700000   16.8700000   21.3040000  
C 15.9810000   16.0800000   20.2280000  
C 16.0540000   14.6840000   20.3390000  
C 15.1550000   14.6730000   24.1020000  
C 14.8800000   15.8530000   24.6710000  
N 15.0300000   16.8220000   23.6920000  
O 14.7280000   15.0440000   27.0160000  
C 14.5830000   16.0720000   26.1340000  
O 14.5270000   17.2210000   26.6280000  
O 16.2010000   16.6690000   18.9540000  
O 16.1530000   14.0030000   19.2010000  
H 15.0650000   13.7380000   24.6560000  
H 14.8450000   14.1970000   26.5370000  
H 14.8910000   17.8080000   23.8100000  
H 15.4280000   17.0660000   18.5210000  
H 16.4230000   13.0650000   19.4640000  
C 15.6180000   18.3350000   21.3510000  
C 16.4620000   18.9860000   22.1930000  
C 16.4990000   20.3900000   22.2140000  
C 15.6810000   21.2590000   21.4030000  
C 14.7350000   20.6060000   20.6690000  
C 14.7140000   19.1650000   20.6320000  
C 17.5540000   18.6440000   23.0330000  
C 18.1500000   19.8090000   23.5550000  
N 17.4890000   20.9280000   23.0250000  
O 19.7050000   18.6400000   24.8930000  
C 19.3010000   19.8630000   24.4810000  
O 19.9090000   20.8630000   24.8300000  
O 13.8990000   21.3120000   19.8740000  
O 13.8210000   18.5320000   19.7970000  
H 17.9210000   17.7260000   23.3050000  
H 19.2110000   18.1000000   24.1940000  
H 17.5820000   21.9040000   23.2320000  
H 13.3680000   20.6680000   19.4230000  
H 13.6100000   17.6800000   20.2820000  
C 15.7540000   22.8130000   21.4860000  
C 16.8420000   23.5060000   20.9080000  
C 17.0010000   24.8610000   20.9150000  
C 16.0230000   25.7110000   21.4980000  
C 14.9840000   25.0980000   22.1750000  
C 14.8310000   23.6850000   22.1330000  
C 18.1230000   22.9530000   20.3330000  
C 18.8980000   24.0130000   19.9520000  
N 18.1930000   25.2500000   20.2560000  
O 20.7110000   22.6460000   19.1610000  
C 20.2510000   23.9400000   19.2780000  
O 20.8810000   24.8810000   18.7900000  
O 13.9550000   25.8130000   22.6970000  
O 13.6960000   23.2090000   22.6740000  
H 18.2430000   21.8730000   20.1630000  
H 20.1580000   22.1700000   19.7530000  
H 18.4150000   26.1990000   20.0310000  
H 13.2820000   25.1180000   22.9810000  
H 13.7920000   22.2430000   23.0410000  
H 15.9460000   26.7730000   21.4030000  
