78
100 
C  8.8380000   17.7030000   22.3700000  
C  8.1140000   18.8750000   22.1670000  
C  8.8780000   20.0080000   21.7890000  
C 10.2660000   19.9680000   21.6790000  
C 11.0440000   18.8330000   21.8920000  
C 10.2710000   17.6740000   22.2440000  
C  8.4930000   21.3770000   21.5560000  
C  9.6280000   22.1120000   21.3040000  
N 10.7310000   21.2040000   21.2550000  
O  8.5950000   24.2030000   21.1300000  
C  9.7380000   23.5230000   21.2090000  
O 10.7950000   24.0720000   21.1500000  
O 10.9440000   16.4050000   22.2500000  
O  8.1520000   16.5440000   22.7670000  
H  7.0010000   18.9120000   22.2470000  
H  7.5570000   21.8090000   21.8210000  
H  7.9900000   23.5140000   21.3330000  
H 11.6010000   21.5490000   21.2590000  
H 11.7960000   16.5230000   21.8260000  
H  8.7960000   15.8140000   22.9440000  
C 12.5900000   18.6670000   21.8610000  
C 13.3200000   18.5030000   23.0230000  
C 14.6850000   18.4260000   23.0000000  
C 15.4600000   18.3930000   21.8840000  
C 14.7600000   18.4970000   20.6580000  
C 13.3610000   18.7340000   20.6450000  
C 13.0260000   18.1440000   24.3320000  
C 14.1910000   17.9430000   25.0970000  
N 15.2240000   18.0940000   24.1870000  
O 13.2120000   17.4190000   27.2260000  
C 14.3260000   17.5830000   26.4800000  
O 15.4120000   17.4020000   26.9800000  
O 15.4150000   18.4410000   19.4560000  
O 12.7760000   18.8840000   19.4450000  
H 12.0270000   18.0990000   24.7910000  
H 12.4120000   17.5160000   26.7110000  
H 16.1740000   17.7890000   24.3290000  
H 14.7290000   18.5040000   18.7760000  
H 11.9050000   19.2170000   19.6030000  
C 16.9500000   17.9970000   22.0030000  
C 17.4000000   16.7670000   21.5260000  
C 18.7100000   16.3840000   21.5190000  
C 19.7290000   17.0670000   22.0890000  
C 19.3300000   18.3250000   22.6490000  
C 18.0020000   18.8280000   22.5820000  
C 16.6930000   15.7130000   20.8640000  
C 17.6220000   14.7280000   20.5510000  
N 18.8560000   15.0790000   21.0310000  
O 15.9420000   13.2620000   19.6750000  
C 17.3000000   13.4560000   19.7900000  
O 18.1220000   12.6740000   19.4230000  
O 20.3490000   19.1250000   23.0480000  
O 17.6900000   20.1110000   22.9030000  
H 15.5940000   15.6980000   20.7600000  
H 15.5880000   14.0030000   20.2180000  
H 19.7120000   14.6530000   20.8350000  
H 19.9430000   19.9810000   23.1550000  
H 16.8360000   20.3760000   22.4900000  
C 21.1180000   16.4510000   22.1380000  
C 21.9180000   16.0830000   21.0410000  
C 23.1050000   15.4230000   21.2070000  
C 23.5850000   15.0820000   22.4410000  
C 22.8490000   15.4650000   23.6030000  
C 21.5890000   16.0610000   23.4420000  
C 21.8540000   16.4430000   19.6430000  
C 23.0440000   15.9930000   18.9900000  
N 23.8180000   15.3910000   20.0410000  
O 22.6420000   16.6320000   16.8150000  
C 23.5160000   16.0790000   17.6180000  
O 24.6770000   15.6700000   17.3130000  
O 23.3560000   15.3360000   24.8770000  
O 20.8050000   16.2110000   24.5750000  
H 20.9650000   16.8840000   19.1470000  
H 21.9470000   16.9880000   17.3360000  
H 24.7160000   15.0570000   19.7850000  
H 23.0060000   15.9550000   25.4690000  
H 19.8490000   16.2640000   24.3150000  
H 24.5800000   14.7180000   22.5490000  
