78
100 
C 11.9350000   23.3900000   23.9420000  
C 11.2570000   23.1350000   25.1450000  
C 11.5100000   21.9130000   25.7470000  
C 12.3420000   21.0300000   25.1310000  
C 13.0940000   21.2470000   23.9830000  
C 12.8510000   22.4820000   23.3890000  
C 10.8610000   21.2360000   26.8290000  
C 11.2340000   19.9160000   26.7620000  
N 12.1140000   19.7840000   25.6750000  
O 10.1980000   19.1390000   28.8390000  
C 10.9090000   18.8440000   27.6860000  
O 11.2480000   17.6800000   27.5150000  
O 13.5910000   22.8180000   22.2530000  
O 11.7450000   24.6350000   23.4050000  
H 10.5170000   23.8350000   25.5270000  
H 10.2610000   21.7350000   27.5580000  
H 10.1730000   20.1370000   29.0140000  
H 12.4220000   18.9340000   25.1670000  
H 14.0870000   22.0250000   22.0030000  
H 12.2330000   24.5970000   22.4960000  
C 13.9850000   20.1980000   23.4270000  
C 13.7710000   19.6510000   22.1240000  
C 14.5000000   18.5590000   21.6730000  
C 15.5820000   17.9870000   22.4220000  
C 15.8510000   18.5930000   23.6920000  
C 15.0510000   19.6310000   24.1600000  
C 12.6960000   19.8120000   21.1360000  
C 12.9440000   18.8210000   20.1610000  
N 14.1310000   18.1300000   20.4150000  
O 11.1260000   19.4020000   18.6770000  
C 12.1750000   18.6090000   18.9210000  
O 12.4770000   17.7720000   18.0380000  
O 16.7560000   18.1040000   24.6030000  
O 15.3540000   20.1790000   25.4030000  
H 11.8770000   20.5190000   21.1930000  
H 11.0080000   20.0720000   19.2680000  
H 14.6290000   17.5180000   19.8070000  
H 16.5970000   18.5950000   25.4640000  
H 14.7930000   20.9790000   25.3930000  
C 16.5640000   16.9850000   21.9070000  
C 17.2930000   17.1420000   20.7130000  
C 17.9910000   16.1060000   20.2270000  
C 18.1580000   14.8420000   20.7780000  
C 17.5300000   14.6620000   22.0260000  
C 16.6340000   15.6890000   22.5280000  
C 17.3140000   18.2810000   19.7620000  
C 18.0890000   17.8890000   18.7090000  
N 18.4990000   16.5060000   18.9900000  
O 17.7850000   19.7980000   17.3910000  
C 18.3460000   18.5770000   17.4140000  
O 18.8900000   18.1520000   16.3960000  
O 17.7500000   13.5680000   22.8580000  
O 16.0020000   15.5370000   23.7340000  
H 16.6860000   19.2170000   19.7690000  
H 17.2920000   19.8820000   18.2460000  
H 18.8750000   15.8800000   18.2640000  
H 17.4240000   13.7260000   23.7590000  
H 15.6250000   16.4490000   23.9450000  
C 19.1040000   13.8260000   20.2370000  
C 20.4920000   14.1370000   20.0910000  
C 21.3970000   13.1220000   19.8010000  
C 20.9880000   11.8050000   19.4950000  
C 19.6110000   11.5460000   19.5280000  
C 18.6680000   12.5170000   19.8960000  
C 21.2460000   15.3350000   20.2750000  
C 22.6000000   15.0450000   19.9790000  
N 22.6860000   13.6650000   19.7310000  
O 23.2570000   17.3550000   19.9850000  
C 23.6950000   16.0610000   19.9740000  
O 24.8680000   15.9000000   19.9250000  
O 19.1650000   10.2910000   19.2820000  
O 17.2910000   12.2210000   19.8580000  
H 20.8910000   16.3250000   20.5480000  
H 22.2790000   17.3120000   19.9430000  
H 23.5140000   13.1130000   19.5660000  
H 18.2170000   10.2740000   19.4560000  
H 16.8740000   12.9020000   20.3740000  
H 21.6590000   11.0460000   19.2480000  
