78
100 
C 11.9270000   11.4000000   22.7080000  
C 12.0730000   10.6190000   21.5850000  
C 12.9240000   11.1060000   20.5580000  
C 13.5480000   12.3580000   20.6470000  
C 13.4900000   13.1600000   21.8030000  
C 12.6300000   12.6710000   22.8180000  
C 13.2790000   10.5720000   19.2750000  
C 13.9850000   11.5020000   18.6000000  
N 14.2540000   12.5840000   19.5070000  
O 14.4700000   10.2410000   16.5350000  
C 14.5670000   11.4400000   17.1450000  
O 15.1080000   12.4070000   16.6890000  
O 12.5830000   13.3500000   23.9740000  
O 11.2290000   10.8700000   23.7820000  
H 11.4520000    9.7120000   21.5050000  
H 12.8970000    9.6890000   18.8160000  
H 14.0000000    9.6760000   17.1850000  
H 14.7210000   13.4900000   19.3480000  
H 13.1500000   14.1110000   23.8650000  
H 11.4190000   11.5640000   24.5040000  
C 14.3360000   14.3980000   21.8470000  
C 13.7540000   15.6590000   21.8530000  
C 14.5340000   16.7620000   21.7940000  
C 15.9190000   16.8220000   21.7360000  
C 16.5140000   15.5710000   21.7310000  
C 15.7800000   14.3650000   21.8060000  
C 12.3920000   16.0400000   21.8010000  
C 12.3740000   17.4130000   21.6100000  
N 13.7430000   17.8730000   21.6550000  
O 10.0800000   17.5150000   21.0050000  
C 11.1680000   18.2070000   21.3030000  
O 11.2710000   19.4010000   21.2380000  
O 17.8260000   15.4340000   21.8050000  
O 16.3500000   13.1100000   22.0110000  
H 11.5200000   15.3690000   21.6470000  
H 10.4190000   16.6180000   21.2380000  
H 13.9790000   18.8880000   21.4950000  
H 18.1030000   14.5250000   21.4720000  
H 15.5860000   12.4820000   22.1680000  
C 16.6910000   18.1150000   21.5870000  
C 16.5370000   19.1300000   22.5540000  
C 17.2790000   20.2760000   22.4390000  
C 18.1140000   20.6050000   21.3360000  
C 18.2870000   19.5650000   20.3550000  
C 17.5610000   18.3780000   20.4810000  
C 15.8660000   19.1970000   23.8150000  
C 16.2680000   20.3900000   24.3330000  
N 17.0770000   21.1400000   23.5090000  
O 14.9810000   20.1460000   26.3800000  
C 15.8930000   20.9480000   25.7010000  
O 16.2880000   22.0210000   26.1520000  
O 19.2440000   19.6760000   19.4060000  
O 17.7150000   17.4190000   19.5070000  
H 15.1800000   18.4310000   24.2780000  
H 14.8660000   19.3780000   25.7800000  
H 17.3820000   22.1550000   23.4720000  
H 19.4790000   18.7700000   19.0650000  
H 17.0950000   16.6450000   19.5420000  
C 18.9040000   21.8960000   21.3370000  
C 19.8430000   22.2390000   22.3860000  
C 20.4840000   23.3770000   22.3940000  
C 20.3970000   24.3680000   21.3780000  
C 19.5340000   24.0830000   20.3040000  
C 18.7120000   22.8980000   20.3500000  
C 20.1540000   21.5160000   23.5950000  
C 21.0640000   22.3510000   24.2270000  
N 21.3350000   23.5090000   23.4610000  
O 21.5060000   20.7220000   25.9180000  
C 21.7060000   21.9980000   25.5070000  
O 22.4460000   22.7120000   26.1000000  
O 19.2740000   25.1140000   19.4820000  
O 17.7020000   22.7170000   19.4680000  
H 19.7580000   20.6010000   23.9600000  
H 20.8550000   20.4190000   25.2850000  
H 21.9510000   24.2870000   23.6680000  
H 18.4790000   24.7700000   19.1030000  
H 17.2700000   21.8760000   19.7450000  
H 20.9410000   25.3030000   21.4550000  
