78
100 
C 16.2180000   10.5620000   23.2260000  
C 16.6150000   10.2410000   24.5410000  
C 16.8900000   11.2620000   25.4400000  
C 16.6830000   12.5490000   25.0250000  
C 16.4220000   12.9350000   23.7080000  
C 16.2230000   11.8910000   22.7730000  
C 17.3690000   11.3590000   26.8270000  
C 17.3480000   12.7560000   27.1800000  
N 16.9000000   13.4280000   26.0650000  
O 18.0770000   12.3120000   29.3890000  
C 17.8890000   13.2810000   28.4300000  
O 18.0960000   14.4180000   28.7100000  
O 15.9180000   12.0910000   21.4370000  
O 16.1600000    9.5740000   22.2940000  
H 16.8590000    9.2030000   24.7390000  
H 17.6800000   10.5100000   27.3960000  
H 17.7270000   11.5790000   28.9310000  
H 16.6950000   14.4400000   26.0500000  
H 15.5510000   12.9550000   21.3010000  
H 15.7660000    9.9380000   21.4690000  
C 16.3490000   14.3680000   23.3560000  
C 17.3230000   14.9340000   22.5960000  
C 17.2080000   16.2460000   22.1820000  
C 16.1860000   17.0800000   22.5810000  
C 15.2620000   16.5830000   23.4610000  
C 15.3150000   15.2210000   23.8650000  
C 18.5120000   14.3540000   22.0240000  
C 19.0590000   15.4420000   21.2200000  
N 18.2380000   16.5730000   21.3220000  
O 20.7390000   14.2090000   20.1860000  
C 20.1940000   15.4420000   20.3150000  
O 20.7420000   16.4100000   19.7530000  
O 14.2010000   17.2460000   23.8970000  
O 14.3280000   14.7450000   24.7170000  
H 18.8630000   13.3430000   22.0090000  
H 20.1560000   13.6350000   20.7380000  
H 18.2980000   17.4190000   20.8310000  
H 13.5680000   16.5410000   24.1630000  
H 14.6770000   13.9010000   25.1010000  
C 16.1380000   18.5000000   22.0330000  
C 15.9490000   18.7150000   20.6670000  
C 15.8670000   20.0020000   20.1290000  
C 15.8460000   21.1480000   20.9210000  
C 15.9270000   20.9620000   22.3560000  
C 16.1310000   19.6350000   22.8750000  
C 15.9840000   17.8160000   19.4430000  
C 15.8370000   18.6900000   18.3270000  
N 15.7500000   20.0210000   18.7530000  
O 16.3140000   17.0350000   16.7530000  
C 15.9220000   18.2730000   16.9040000  
O 15.7640000   19.0350000   15.9490000  
O 15.9660000   22.0200000   23.2050000  
O 16.2990000   19.5780000   24.2530000  
H 16.2260000   16.7260000   19.4430000  
H 16.3780000   16.6850000   17.6670000  
H 15.5370000   20.8190000   18.1170000  
H 15.8150000   21.6550000   24.1120000  
H 16.0930000   18.6460000   24.4770000  
C 15.7200000   22.5220000   20.3470000  
C 14.5310000   22.9550000   19.7310000  
C 14.3090000   24.2130000   19.1990000  
C 15.3680000   25.0780000   19.1380000  
C 16.5500000   24.7760000   19.8140000  
C 16.7610000   23.4820000   20.3920000  
C 13.2010000   22.3670000   19.4890000  
C 12.2720000   23.2620000   19.1430000  
N 12.9810000   24.3870000   18.8690000  
O 10.4900000   21.7430000   19.3270000  
C 10.8290000   22.9690000   18.8580000  
O 10.1420000   23.7540000   18.2420000  
O 17.5800000   25.6960000   19.8090000  
O 17.9690000   23.1780000   20.9970000  
H 12.9260000   21.3240000   19.6540000  
H 11.3850000   21.4330000   19.6550000  
H 12.6040000   25.2510000   18.5780000  
H 18.1550000   25.4160000   20.5400000  
H 17.9110000   22.3090000   21.4040000  
H 15.2160000   26.0470000   18.6370000  
