78
100 
C 13.6120000   10.7540000   21.2330000  
C 12.5910000   10.7250000   20.2790000  
C 11.9850000   11.8270000   19.7770000  
C 12.6370000   13.0140000   19.9870000  
C 13.7350000   13.1970000   20.7780000  
C 14.2170000   12.0470000   21.4800000  
C 10.8860000   12.0210000   18.9320000  
C 10.9210000   13.3770000   18.5840000  
N 12.0180000   13.9670000   19.2510000  
O  8.8770000   13.5770000   17.2020000  
C  9.9870000   14.2390000   17.7120000  
O 10.3040000   15.3510000   17.3500000  
O 15.3590000   12.1120000   22.2070000  
O 14.0590000    9.6550000   21.8910000  
H 12.1940000    9.7920000   20.0180000  
H 10.1590000   11.3310000   18.4920000  
H  8.9350000   12.7470000   17.6240000  
H 12.3210000   14.8890000   19.1840000  
H 15.7340000   13.0340000   22.0800000  
H 14.8140000    9.9340000   22.5160000  
C 14.4000000   14.5180000   20.9260000  
C 14.1720000   15.2720000   22.1080000  
C 14.8360000   16.4670000   22.2920000  
C 15.7640000   17.0510000   21.3640000  
C 16.0160000   16.2760000   20.1780000  
C 15.3140000   15.0760000   19.9940000  
C 13.4140000   15.0020000   23.2750000  
C 13.6690000   16.1250000   24.1550000  
N 14.5500000   17.0230000   23.4910000  
O 12.4110000   15.1720000   26.0800000  
C 13.1360000   16.2360000   25.5040000  
O 13.4180000   17.2470000   26.1780000  
O 16.8670000   16.6170000   19.1490000  
O 15.5860000   14.3100000   18.8680000  
H 13.0150000   14.0470000   23.5730000  
H 12.2540000   14.6000000   25.3740000  
H 14.8380000   17.9500000   23.8950000  
H 16.8590000   15.9260000   18.5870000  
H 14.9820000   13.5640000   18.9020000  
C 16.5500000   18.3320000   21.6460000  
C 17.2410000   18.5070000   22.8800000  
C 17.8730000   19.6700000   23.1890000  
C 17.8240000   20.8070000   22.3770000  
C 17.1180000   20.6590000   21.1640000  
C 16.5710000   19.4380000   20.7560000  
C 17.5410000   17.6010000   23.9320000  
C 18.3510000   18.2960000   24.8550000  
N 18.5420000   19.6400000   24.3870000  
O 18.4530000   16.5160000   26.4740000  
C 18.9540000   17.7170000   26.1090000  
O 19.7070000   18.3270000   26.8520000  
O 17.0640000   21.7210000   20.2500000  
O 15.9340000   19.3920000   19.4910000  
H 17.3240000   16.4810000   23.9320000  
H 17.8590000   16.2770000   25.7630000  
H 19.0140000   20.3760000   24.9150000  
H 16.4240000   21.4310000   19.5770000  
H 15.8070000   18.4600000   19.2730000  
C 18.5080000   22.1190000   22.6920000  
C 19.5500000   22.6070000   21.9120000  
C 20.1710000   23.7690000   22.1490000  
C 19.6500000   24.6770000   23.1040000  
C 18.6200000   24.2850000   23.9680000  
C 18.0780000   22.9760000   23.8120000  
C 20.3320000   21.9650000   20.8710000  
C 21.3030000   22.8270000   20.4960000  
N 21.2320000   23.9350000   21.3580000  
O 22.3080000   21.4290000   18.9880000  
C 22.3810000   22.6490000   19.5130000  
O 23.2200000   23.4770000   19.2660000  
O 18.0780000   25.1640000   24.9330000  
O 16.9250000   22.6680000   24.5320000  
H 20.1840000   20.9600000   20.5770000  
H 21.6690000   20.8600000   19.4640000  
H 21.8960000   24.6600000   21.3340000  
H 17.5820000   24.7060000   25.5780000  
H 16.5850000   21.7670000   24.2070000  
H 20.0210000   25.6800000   23.2310000  
