78
100 
C 15.6640000   10.4200000   22.7500000  
C 16.2500000    9.9370000   23.9130000  
C 16.6300000   10.8640000   24.8830000  
C 16.5380000   12.2220000   24.5980000  
C 16.0290000   12.7530000   23.4140000  
C 15.5270000   11.8090000   22.4620000  
C 17.1890000   10.6740000   26.1410000  
C 17.5910000   11.9420000   26.4980000  
N 17.2690000   12.9390000   25.5170000  
O 18.5620000   11.1810000   28.4670000  
C 18.4480000   12.2350000   27.6610000  
O 18.9970000   13.2930000   27.9610000  
O 14.8890000   12.2310000   21.3590000  
O 15.1080000    9.4320000   21.8780000  
H 16.3540000    8.8810000   24.0030000  
H 17.3350000    9.7450000   26.7350000  
H 17.8270000   10.6480000   28.1790000  
H 17.6230000   13.8760000   25.3690000  
H 14.8300000   13.2280000   21.3720000  
H 14.6490000    9.9130000   21.2070000  
C 16.0180000   14.2360000   23.1370000  
C 16.5060000   14.6790000   21.8350000  
C 16.5080000   16.0210000   21.6530000  
C 15.9860000   17.0050000   22.4790000  
C 15.3870000   16.5230000   23.6680000  
C 15.4160000   15.1780000   24.0100000  
C 17.2580000   14.1120000   20.7480000  
C 17.6360000   15.0890000   19.9260000  
N 17.3090000   16.3190000   20.5760000  
O 18.8160000   13.6110000   18.4420000  
C 18.4370000   14.8640000   18.6440000  
O 18.7960000   15.7860000   17.9440000  
O 14.8060000   17.2940000   24.5640000  
O 14.8650000   14.7970000   25.2200000  
H 17.5430000   13.0530000   20.6870000  
H 18.4360000   13.1570000   19.2300000  
H 17.3830000   17.2360000   20.2030000  
H 14.5380000   16.8250000   25.3770000  
H 15.0320000   13.7880000   25.3570000  
C 16.1190000   18.4650000   22.1230000  
C 15.6100000   18.9680000   20.9150000  
C 15.8160000   20.2520000   20.5250000  
C 16.4560000   21.2040000   21.3140000  
C 16.8950000   20.7480000   22.5780000  
C 16.7900000   19.3980000   22.9600000  
C 14.8240000   18.3560000   19.8690000  
C 14.7090000   19.2900000   18.8260000  
N 15.3490000   20.4760000   19.2310000  
O 13.2170000   18.0390000   17.4070000  
C 13.9470000   19.2110000   17.5760000  
O 14.0990000   19.9940000   16.6560000  
O 17.5040000   21.5530000   23.4180000  
O 17.4170000   19.0020000   24.0980000  
H 14.3500000   17.3720000   19.8390000  
H 13.4430000   17.4290000   18.1170000  
H 15.3570000   21.3700000   18.6630000  
H 17.9460000   21.0610000   24.0630000  
H 17.2730000   18.0730000   24.2250000  
C 16.6230000   22.5950000   20.7220000  
C 15.4980000   23.4190000   20.5910000  
C 15.6500000   24.7310000   20.2420000  
C 16.9100000   25.2250000   19.8620000  
C 18.0220000   24.3710000   19.8740000  
C 17.9140000   23.0960000   20.3970000  
C 14.1110000   23.1590000   20.7820000  
C 13.4680000   24.3720000   20.3990000  
N 14.4600000   25.3480000   20.1130000  
O 11.3710000   23.4220000   20.9180000  
C 11.9880000   24.5380000   20.4570000  
O 11.3400000   25.5720000   20.3080000  
O 19.2210000   24.8470000   19.4220000  
O 19.0840000   22.3710000   20.5510000  
H 13.6800000   22.1750000   21.0770000  
H 12.1290000   22.8540000   21.2350000  
H 14.2260000   26.2220000   19.6410000  
H 19.9800000   24.2560000   19.5820000  
H 18.9340000   21.7530000   21.2760000  
H 17.0640000   26.2510000   19.4780000  
