78
100 
C 16.2540000   21.4330000   28.0970000  
C 16.8120000   20.7240000   29.1450000  
C 17.3470000   19.4390000   28.9320000  
C 17.3780000   18.9260000   27.6920000  
C 16.8650000   19.6060000   26.5280000  
C 16.2310000   20.8510000   26.7680000  
C 18.1910000   18.6130000   29.7130000  
C 18.6990000   17.5980000   28.8550000  
N 18.0980000   17.7730000   27.5620000  
O 20.1020000   16.5160000   30.4540000  
C 19.6620000   16.4830000   29.1890000  
O 19.9930000   15.5950000   28.4460000  
O 15.5080000   21.4560000   25.7310000  
O 15.7250000   22.6940000   28.3080000  
H 16.9380000   21.2380000   30.1200000  
H 18.4120000   18.6350000   30.7600000  
H 19.7720000   17.3550000   30.8760000  
H 18.1750000   17.1840000   26.7010000  
H 15.2480000   20.6500000   25.2600000  
H 15.9360000   23.2130000   27.5700000  
C 16.8410000   19.0400000   25.0970000  
C 16.1760000   17.8470000   24.8690000  
C 16.0460000   17.3050000   23.5990000  
C 16.3950000   17.8750000   22.4160000  
C 17.0700000   19.1620000   22.6100000  
C 17.2270000   19.7020000   23.9160000  
C 15.5490000   16.9620000   25.8150000  
C 15.0540000   15.9290000   25.0370000  
N 15.4040000   16.0660000   23.7040000  
O 14.5000000   14.3520000   26.8290000  
C 14.5310000   14.6070000   25.5120000  
O 14.2050000   13.7460000   24.7210000  
O 17.5690000   19.7890000   21.5140000  
O 17.9700000   20.8750000   24.0430000  
H 15.5790000   16.9800000   26.8990000  
H 14.7530000   15.2120000   27.1380000  
H 15.1390000   15.5480000   22.8690000  
H 18.0270000   20.5900000   21.7790000  
H 18.2160000   20.9790000   24.9850000  
C 16.1530000   17.2930000   21.0330000  
C 15.1310000   17.7400000   20.1980000  
C 15.0610000   17.2230000   18.9870000  
C 15.8830000   16.1940000   18.4820000  
C 16.9760000   15.8140000   19.2700000  
C 17.1000000   16.3760000   20.5530000  
C 14.0610000   18.6640000   20.3680000  
C 13.2580000   18.5460000   19.2260000  
N 13.9430000   17.6890000   18.3320000  
O 11.6540000   20.0310000   20.0220000  
C 12.0190000   19.3330000   18.9850000  
O 11.2680000   19.2370000   17.9810000  
O 17.9720000   14.9540000   18.8960000  
O 18.0670000   15.8810000   21.4160000  
H 13.8820000   19.2690000   21.2980000  
H 12.1940000   19.6370000   20.7460000  
H 13.6380000   17.5330000   17.4090000  
H 18.9180000   15.1130000   19.3210000  
H 17.7880000   16.1580000   22.3080000  
C 15.7220000   15.7900000   17.0560000  
C 15.9710000   16.7360000   16.0120000  
C 15.7730000   16.3630000   14.6720000  
C 15.3740000   15.0240000   14.3560000  
C 15.1240000   14.0570000   15.4030000  
C 15.3500000   14.4470000   16.7300000  
C 16.3030000   18.1770000   15.9600000  
C 16.4480000   18.4950000   14.5800000  
N 16.0610000   17.3690000   13.8230000  
O 17.0030000   20.7860000   15.0170000  
C 16.7760000   19.8390000   14.0650000  
O 16.7410000   20.0780000   12.8770000  
O 14.8170000   12.7690000   15.1070000  
O 15.2830000   13.5360000   17.7830000  
H 16.4490000   18.8290000   16.7440000  
H 16.8780000   20.3600000   15.9040000  
H 16.0380000   17.3190000   12.8380000  
H 15.3260000   12.2430000   15.7830000  
H 15.9850000   13.8190000   18.4390000  
H 15.0770000   14.8400000   13.3170000  
