78
100 
C 20.4170000   13.5740000   26.3020000  
C 19.7470000   12.9870000   27.3940000  
C 18.4010000   13.4470000   27.6150000  
C 17.7850000   14.2720000   26.7750000  
C 18.3240000   14.6810000   25.5440000  
C 19.7200000   14.4320000   25.4380000  
C 17.4460000   13.1130000   28.5990000  
C 16.2760000   13.7220000   28.2600000  
N 16.5070000   14.5220000   27.1680000  
O 15.0890000   13.0830000   30.1200000  
C 14.9620000   13.5600000   28.9390000  
O 13.9030000   13.9660000   28.4170000  
O 20.4060000   14.9580000   24.3790000  
O 21.7640000   13.2710000   26.0960000  
H 20.2580000   12.4430000   28.2490000  
H 17.5220000   12.3630000   29.3380000  
H 16.0690000   12.9970000   30.2610000  
H 15.7890000   15.1150000   26.7040000  
H 19.8620000   15.6300000   23.9060000  
H 21.8410000   13.5450000   25.2050000  
C 17.6030000   15.6130000   24.5410000  
C 18.0810000   16.9520000   24.2590000  
C 17.3780000   17.7590000   23.4230000  
C 16.1530000   17.4050000   22.7850000  
C 15.7080000   16.0630000   23.0160000  
C 16.4610000   15.2290000   23.8650000  
C 19.2070000   17.7470000   24.7100000  
C 19.1460000   18.9980000   24.0290000  
N 17.9600000   19.0350000   23.2510000  
O 21.2730000   19.9050000   24.8450000  
C 20.1560000   20.0600000   24.0220000  
O 20.0670000   20.8800000   23.1530000  
O 14.5650000   15.6840000   22.4340000  
O 15.8910000   13.9810000   24.1600000  
H 19.9680000   17.4290000   25.4580000  
H 21.0450000   19.1440000   25.3720000  
H 17.6000000   19.7510000   22.6000000  
H 14.2120000   16.4880000   22.0440000  
H 14.9970000   14.0440000   23.8670000  
C 15.4400000   18.2680000   21.7440000  
C 16.0530000   18.6700000   20.5350000  
C 15.3530000   19.3940000   19.6270000  
C 14.0010000   19.7000000   19.6840000  
C 13.3720000   19.3090000   20.9180000  
C 14.1040000   18.6220000   21.9550000  
C 17.3420000   18.3730000   19.9580000  
C 17.2900000   18.9780000   18.6420000  
N 16.0050000   19.5120000   18.4230000  
O 19.5440000   18.3270000   17.8880000  
C 18.3940000   18.9700000   17.5830000  
O 18.2000000   19.3670000   16.4800000  
O 12.0040000   19.5000000   20.9980000  
O 13.4640000   18.2460000   23.0850000  
H 18.2050000   17.7830000   20.3800000  
H 19.3870000   18.0000000   18.8250000  
H 15.6270000   20.0630000   17.6460000  
H 11.9380000   20.3290000   20.4570000  
H 12.5620000   18.6000000   23.1210000  
C 13.2980000   20.5630000   18.5930000  
C 13.1760000   20.0240000   17.2870000  
C 12.7060000   20.7920000   16.2990000  
C 12.3890000   22.1750000   16.4880000  
C 12.4850000   22.7510000   17.7640000  
C 12.9950000   21.9280000   18.8120000  
C 13.4660000   18.7600000   16.6670000  
C 13.1730000   18.8990000   15.2590000  
N 12.6680000   20.1930000   15.0460000  
O 13.6400000   16.5680000   14.5840000  
C 13.3520000   17.8440000   14.2160000  
O 13.2380000   18.0370000   13.0210000  
O 12.2070000   24.0700000   17.9040000  
O 13.2260000   22.3670000   20.0530000  
H 13.7170000   17.8780000   17.1620000  
H 13.6330000   16.5790000   15.5610000  
H 12.4720000   20.6540000   14.1390000  
H 12.5020000   24.3870000   18.7600000  
H 14.0220000   21.9950000   20.4070000  
H 12.0540000   22.7590000   15.6270000  
