78
100 
C 18.6690000   13.6160000   27.6270000  
C 18.1900000   14.2080000   28.8320000  
C 17.2610000   15.2460000   28.7100000  
C 16.8820000   15.6770000   27.4580000  
C 17.4120000   15.1820000   26.2600000  
C 18.3020000   14.0530000   26.3380000  
C 16.7120000   16.1720000   29.6760000  
C 16.0320000   17.1010000   28.9060000  
N 16.0990000   16.7800000   27.5290000  
O 15.2880000   18.6140000   30.6310000  
C 15.1700000   18.2420000   29.3690000  
O 14.3300000   18.7400000   28.6700000  
O 18.8810000   13.4900000   25.2340000  
O 19.5790000   12.5930000   27.8270000  
H 18.5310000   13.8490000   29.8040000  
H 16.8000000   16.0570000   30.7490000  
H 16.0790000   18.1280000   30.9260000  
H 15.5500000   17.0910000   26.7440000  
H 18.7810000   14.1200000   24.5640000  
H 19.8720000   12.1950000   26.9800000  
C 16.9580000   15.8000000   24.9710000  
C 17.5520000   16.9900000   24.5060000  
C 17.1050000   17.6140000   23.3730000  
C 16.0080000   17.1610000   22.5630000  
C 15.3500000   16.0170000   23.0840000  
C 15.7850000   15.3600000   24.2560000  
C 18.6360000   17.8170000   25.0130000  
C 18.7910000   18.8730000   24.1560000  
N 17.9140000   18.7010000   23.0530000  
O 20.4170000   19.9380000   25.5210000  
C 19.5720000   20.0470000   24.4740000  
O 19.4150000   21.1060000   23.9170000  
O 14.3160000   15.3970000   22.4070000  
O 15.1600000   14.2390000   24.7170000  
H 19.1540000   17.5140000   25.9610000  
H 20.3150000   19.0520000   25.7500000  
H 17.8280000   19.3210000   22.2100000  
H 13.8960000   14.7350000   22.9770000  
H 15.7720000   13.7720000   25.3390000  
C 15.6990000   17.8570000   21.3120000  
C 16.0960000   17.3170000   20.1260000  
C 15.9030000   17.9520000   18.8790000  
C 15.3020000   19.1960000   18.7320000  
C 14.5990000   19.6600000   19.8750000  
C 14.9280000   19.0820000   21.1780000  
C 16.8040000   16.0710000   19.7910000  
C 17.1380000   16.0670000   18.4330000  
N 16.5950000   17.2280000   17.8690000  
O 18.4380000   14.0980000   18.5940000  
C 18.1210000   15.1620000   17.8210000  
O 18.4850000   15.3020000   16.6490000  
O 13.7690000   20.7830000   19.7640000  
O 14.3070000   19.5820000   22.3510000  
H 17.1010000   15.3320000   20.5370000  
H 17.9230000   14.3180000   19.3960000  
H 16.7340000   17.5830000   16.9160000  
H 13.3860000   20.8870000   20.6070000  
H 14.7140000   19.0980000   23.0380000  
C 15.1980000   19.9490000   17.4680000  
C 14.0680000   19.7520000   16.5990000  
C 14.0490000   20.2800000   15.3490000  
C 15.1480000   20.9290000   14.7710000  
C 16.1990000   21.2690000   15.5880000  
C 16.2560000   20.7310000   16.9160000  
C 12.8350000   19.0270000   16.7470000  
C 12.1570000   19.1250000   15.5550000  
N 12.8880000   19.9030000   14.6910000  
O 10.3190000   17.6860000   15.9690000  
C 10.8780000   18.5730000   15.1860000  
O 10.3160000   18.8030000   14.1360000  
O 17.2170000   22.0970000   15.2430000  
O 17.4200000   20.9580000   17.6490000  
H 12.5210000   18.3740000   17.6010000  
H 10.9080000   17.7120000   16.7730000  
H 12.5590000   20.1800000   13.7850000  
H 17.8890000   22.0230000   15.8670000  
H 17.2180000   20.5200000   18.5100000  
H 15.0290000   21.2560000   13.7200000  
