78
100 
C  9.4890000   21.1190000   20.9590000  
C  8.9620000   21.4980000   22.1980000  
C  9.7170000   21.1270000   23.2740000  
C 10.9210000   20.4090000   23.1570000  
C 11.4450000   19.9270000   21.9010000  
C 10.6610000   20.2890000   20.8280000  
C  9.6410000   21.3400000   24.6880000  
C 10.8420000   20.8540000   25.2650000  
N 11.5720000   20.1490000   24.3310000  
O 10.2940000   21.6920000   27.4080000  
C 11.2230000   21.0600000   26.6790000  
O 12.2340000   20.5780000   27.1690000  
O 11.0370000   19.8560000   19.5650000  
O  8.8410000   21.5560000   19.8100000  
H  8.1470000   22.1300000   22.2780000  
H  8.7700000   21.8860000   25.2150000  
H  9.6750000   22.0470000   26.8370000  
H 12.4060000   19.6530000   24.5180000  
H 11.7390000   19.2480000   19.7570000  
H  9.1630000   21.0820000   18.9650000  
C 12.7940000   19.2910000   21.8000000  
C 13.0580000   18.0000000   21.2760000  
C 14.2590000   17.3640000   21.4750000  
C 15.3830000   17.9900000   22.0630000  
C 15.1730000   19.3380000   22.5110000  
C 13.9250000   19.9470000   22.3760000  
C 12.1900000   16.8460000   20.9230000  
C 12.9600000   15.7170000   20.8050000  
N 14.2620000   16.0520000   21.2310000  
O 11.2660000   14.2820000   19.7980000  
C 12.5520000   14.3740000   20.3500000  
O 13.3590000   13.4280000   20.4500000  
O 16.0430000   20.0830000   23.1880000  
O 13.8250000   21.2240000   22.8310000  
H 11.1140000   16.8400000   20.8110000  
H 10.9580000   15.2000000   19.8110000  
H 15.0840000   15.4560000   21.0210000  
H 15.6960000   20.9530000   23.3630000  
H 13.0240000   21.6120000   22.5110000  
C 16.7110000   17.3590000   22.1980000  
C 17.4020000   17.0200000   21.0170000  
C 18.5810000   16.4130000   21.0730000  
C 19.2920000   16.1320000   22.2250000  
C 18.7210000   16.5700000   23.4170000  
C 17.4520000   17.1720000   23.4160000  
C 16.9520000   17.0460000   19.6850000  
C 17.9900000   16.4140000   18.9210000  
N 18.9290000   16.0140000   19.8220000  
O 16.8730000   16.5110000   16.8700000  
C 17.9850000   16.0330000   17.4560000  
O 18.7970000   15.3540000   16.9020000  
O 19.2990000   16.3270000   24.5940000  
O 16.8980000   17.5890000   24.5780000  
H 15.9430000   17.2890000   19.2020000  
H 16.3060000   17.0200000   17.4710000  
H 19.6860000   15.4130000   19.6130000  
H 18.6080000   16.3760000   25.2810000  
H 16.0120000   17.9970000   24.3440000  
C 20.5350000   15.3840000   22.1560000  
C 21.6980000   15.9890000   21.6960000  
C 22.9450000   15.3950000   21.6460000  
C 23.1000000   14.0620000   22.0650000  
C 21.9900000   13.4310000   22.5820000  
C 20.7230000   14.1150000   22.6770000  
C 21.8430000   17.3250000   21.0940000  
C 23.2030000   17.4940000   20.8340000  
N 23.8710000   16.2660000   21.0990000  
O 22.8460000   19.5850000   19.7040000  
C 23.8070000   18.7050000   20.1890000  
O 24.9840000   18.8750000   20.0070000  
O 22.0600000   12.1260000   23.1030000  
O 19.6460000   13.3340000   23.1260000  
H 21.0120000   17.9940000   20.8910000  
H 21.9970000   19.2690000   19.9980000  
H 24.7420000   15.9530000   20.8080000  
H 21.1020000   11.9370000   23.2490000  
H 18.8460000   13.9270000   23.1050000  
H 24.0470000   13.5340000   22.0800000  
