78
100 
C 18.8330000   16.0090000   28.6830000  
C 17.7140000   15.8820000   29.5380000  
C 16.4590000   16.1660000   29.0810000  
C 16.2280000   16.5480000   27.8020000  
C 17.2330000   16.5490000   26.8360000  
C 18.5690000   16.2450000   27.2830000  
C 15.1590000   16.2880000   29.7050000  
C 14.2470000   16.6690000   28.7380000  
N 14.9310000   16.8870000   27.5600000  
O 12.2500000   16.3560000   29.9150000  
C 12.8370000   16.9960000   28.8690000  
O 12.2630000   17.7800000   28.1460000  
O 19.6210000   16.2850000   26.4490000  
O 20.1250000   15.8920000   29.1200000  
H 17.7580000   15.6770000   30.5840000  
H 14.9880000   15.9960000   30.7050000  
H 13.0200000   15.8190000   30.3450000  
H 14.5270000   17.1620000   26.6860000  
H 19.2860000   16.5950000   25.5560000  
H 20.7150000   16.3860000   28.5720000  
C 16.9170000   16.9010000   25.4200000  
C 17.5890000   17.9730000   24.6970000  
C 17.3400000   18.1380000   23.3730000  
C 16.3960000   17.4010000   22.6750000  
C 15.6990000   16.3660000   23.3220000  
C 16.0010000   16.0820000   24.6820000  
C 18.5240000   19.0410000   25.0620000  
C 18.8930000   19.7280000   23.8970000  
N 18.1700000   19.0940000   22.8500000  
O 20.2430000   21.3350000   25.0490000  
C 19.7710000   20.9380000   23.8600000  
O 20.1360000   21.5460000   22.8850000  
O 14.8340000   15.4950000   22.6800000  
O 15.3920000   15.0270000   25.2950000  
H 18.8850000   19.4170000   26.0320000  
H 19.8280000   20.7410000   25.6220000  
H 18.2120000   19.3140000   21.8450000  
H 14.7280000   14.6280000   23.1380000  
H 15.7060000   14.9090000   26.2430000  
C 16.0530000   17.8060000   21.2280000  
C 16.9730000   17.9110000   20.1690000  
C 16.6040000   18.2180000   18.8830000  
C 15.2810000   18.4430000   18.4610000  
C 14.3110000   18.3830000   19.4760000  
C 14.6130000   18.0590000   20.8660000  
C 18.4380000   17.7030000   20.0210000  
C 18.7750000   17.9100000   18.7080000  
N 17.6060000   18.2900000   17.9990000  
O 21.1460000   17.4500000   18.9600000  
C 20.1060000   17.6650000   18.1110000  
O 20.2440000   17.6360000   16.8660000  
O 13.0010000   18.7020000   19.0930000  
O 13.5920000   17.9890000   21.7160000  
H 19.0860000   17.3840000   20.8340000  
H 20.9190000   17.5970000   19.8820000  
H 17.5290000   18.4330000   17.0310000  
H 12.4290000   18.7630000   19.8930000  
H 14.0020000   17.9380000   22.5890000  
C 14.9450000   18.8430000   17.0580000  
C 13.9820000   18.0120000   16.3740000  
C 13.6600000   18.3030000   15.1370000  
C 14.3870000   19.2690000   14.4120000  
C 15.2510000   20.1230000   15.0760000  
C 15.5690000   19.9560000   16.3980000  
C 13.3800000   16.7450000   16.7270000  
C 12.6420000   16.4250000   15.5730000  
N 12.8630000   17.3680000   14.5490000  
O 11.7210000   14.3400000   16.3070000  
C 11.8750000   15.2020000   15.2940000  
O 11.3330000   14.9720000   14.2690000  
O 15.8400000   21.0720000   14.3180000  
O 16.3650000   20.8660000   17.0840000  
H 13.2710000   16.3370000   17.7390000  
H 12.1760000   14.7510000   17.0210000  
H 12.6700000   17.2930000   13.5580000  
H 16.3500000   21.6760000   14.9180000  
H 16.2350000   20.6710000   18.0330000  
H 14.2320000   19.5040000   13.3360000  
