78
100 
C  9.2050000   20.1400000   23.4030000  
C  8.2890000   19.4350000   22.6580000  
C  8.7230000   18.3730000   21.9290000  
C 10.0420000   18.0230000   21.9370000  
C 11.1080000   18.7470000   22.5540000  
C 10.6450000   19.8920000   23.2990000  
C  8.0550000   17.4180000   21.0320000  
C  9.0560000   16.5620000   20.5920000  
N 10.3170000   16.8830000   21.1540000  
O  7.8620000   14.9040000   19.3150000  
C  9.0730000   15.2490000   19.8800000  
O 10.1060000   14.6420000   19.6490000  
O 11.5180000   20.7260000   24.0020000  
O  8.8210000   21.2020000   24.2470000  
H  7.2350000   19.5660000   22.8440000  
H  7.0450000   17.2670000   20.8570000  
H  7.2190000   15.5100000   19.5690000  
H 11.2240000   16.5270000   20.8350000  
H 12.4080000   20.6810000   23.5230000  
H  9.7010000   21.5890000   24.5140000  
C 12.5740000   18.4370000   22.4510000  
C 13.1850000   18.1470000   21.2020000  
C 14.5280000   17.7960000   21.0960000  
C 15.3830000   17.6300000   22.1840000  
C 14.8290000   17.8790000   23.4800000  
C 13.4350000   18.1700000   23.6020000  
C 12.7090000   18.3230000   19.8060000  
C 13.7640000   17.9080000   18.9760000  
N 14.8790000   17.5440000   19.8230000  
O 12.5770000   18.1760000   16.8990000  
C 13.7120000   17.9000000   17.4710000  
O 14.6650000   17.5900000   16.7690000  
O 15.6060000   17.7910000   24.6000000  
O 12.8780000   18.2360000   24.8600000  
H 11.6650000   18.5700000   19.4400000  
H 11.9110000   18.2580000   17.6310000  
H 15.8230000   17.6760000   19.5150000  
H 15.0710000   18.0790000   25.3550000  
H 11.9170000   18.5670000   24.8840000  
C 16.8310000   17.2530000   22.0570000  
C 17.6770000   18.1760000   21.4550000  
C 19.0310000   17.9840000   21.3870000  
C 19.6550000   16.8150000   21.8140000  
C 18.8010000   15.8240000   22.4290000  
C 17.4180000   16.0590000   22.5470000  
C 17.4410000   19.5490000   21.0280000  
C 18.7210000   20.0710000   20.8270000  
N 19.7630000   19.1070000   21.0980000  
O 17.8800000   22.2030000   20.2900000  
C 18.9780000   21.4500000   20.4400000  
O 20.0430000   21.9170000   20.1300000  
O 19.2060000   14.6150000   22.8400000  
O 16.5020000   15.0790000   23.0010000  
H 16.4880000   20.0320000   21.1360000  
H 17.2350000   21.5010000   20.1480000  
H 20.7700000   19.1900000   20.8560000  
H 18.4310000   14.1490000   23.1260000  
H 15.6460000   15.5440000   23.1120000  
C 21.1400000   16.6540000   21.6680000  
C 21.9300000   16.5330000   22.8090000  
C 23.3040000   16.4350000   22.7520000  
C 24.0360000   16.3400000   21.5800000  
C 23.2470000   16.2930000   20.3840000  
C 21.7890000   16.4820000   20.4470000  
C 21.5590000   16.4900000   24.2380000  
C 22.7310000   16.3960000   25.0140000  
N 23.8320000   16.3210000   24.0410000  
O 21.8310000   16.2530000   27.2610000  
C 22.9010000   16.3040000   26.5010000  
O 24.0270000   16.1780000   26.9860000  
O 23.9320000   16.2970000   19.2600000  
O 21.1270000   16.5250000   19.1940000  
H 20.6030000   16.5860000   24.6870000  
H 21.0680000   16.5190000   26.6870000  
H 24.7970000   16.0290000   24.2460000  
H 23.3290000   16.3690000   18.4730000  
H 20.2320000   16.9510000   19.3640000  
H 25.1050000   16.4170000   21.6230000  
