78
100 
C 13.8460000   10.6420000   22.9620000  
C 13.3460000   10.0490000   21.7990000  
C 13.5020000   10.7990000   20.6570000  
C 14.0600000   12.0440000   20.6700000  
C 14.4280000   12.7240000   21.8080000  
C 14.3950000   11.9460000   22.9880000  
C 13.1450000   10.5650000   19.2330000  
C 13.4500000   11.7430000   18.5750000  
N 13.9440000   12.6910000   19.3750000  
O 12.7880000   10.8660000   16.4700000  
C 13.3230000   11.9250000   17.1090000  
O 13.6560000   12.9250000   16.5380000  
O 14.8890000   12.4550000   24.1240000  
O 13.6830000    9.9720000   24.1390000  
H 12.9180000    9.0300000   21.8320000  
H 12.8740000    9.6050000   18.8820000  
H 12.5320000   10.2470000   17.1730000  
H 14.0460000   13.7410000   19.2200000  
H 15.2020000   13.2840000   23.8220000  
H 13.8070000   10.5800000   24.8950000  
C 14.8860000   14.1880000   21.8270000  
C 14.1500000   15.2180000   22.3820000  
C 14.6000000   16.4650000   22.3770000  
C 15.7670000   16.8910000   21.7940000  
C 16.5100000   15.8960000   21.0970000  
C 16.1020000   14.5410000   21.1840000  
C 12.9190000   15.2250000   23.1180000  
C 12.6380000   16.5390000   23.4190000  
N 13.6840000   17.3020000   22.8860000  
O 10.6180000   16.1180000   24.6430000  
C 11.4320000   17.0150000   24.1010000  
O 11.1220000   18.1450000   24.1160000  
O 17.6640000   16.1830000   20.4880000  
O 16.8670000   13.5620000   20.5950000  
H 12.2250000   14.3660000   23.2740000  
H 11.0590000   15.2940000   24.4900000  
H 13.7610000   18.2510000   23.2100000  
H 17.9600000   15.2690000   20.1740000  
H 16.4360000   12.7160000   20.8120000  
C 16.2300000   18.3110000   21.7010000  
C 16.9680000   18.9140000   22.7530000  
C 17.2740000   20.2130000   22.6290000  
C 16.9930000   21.1290000   21.6130000  
C 16.3090000   20.4940000   20.4750000  
C 15.8340000   19.1070000   20.6170000  
C 17.4850000   18.4850000   24.0210000  
C 18.0260000   19.6050000   24.6460000  
N 17.8600000   20.6960000   23.8050000  
O 18.9110000   18.4540000   26.5270000  
C 18.7730000   19.6310000   25.9570000  
O 19.3090000   20.5940000   26.4730000  
O 16.0780000   21.2100000   19.3240000  
O 15.1100000   18.5500000   19.6130000  
H 17.4540000   17.3880000   24.3750000  
H 18.3870000   17.8440000   25.9550000  
H 18.3820000   21.5960000   23.8170000  
H 15.5670000   20.7250000   18.7040000  
H 14.9910000   17.5830000   19.9140000  
C 17.4610000   22.5610000   21.5540000  
C 18.8480000   22.8670000   21.3170000  
C 19.2850000   24.1840000   21.4460000  
C 18.5030000   25.2610000   21.8450000  
C 17.1300000   24.9680000   22.0640000  
C 16.6300000   23.6460000   21.9400000  
C 20.0530000   21.9960000   21.2120000  
C 21.1400000   22.8750000   21.1300000  
N 20.6440000   24.2400000   21.2310000  
O 22.8800000   21.2660000   21.0410000  
C 22.5520000   22.5730000   20.9780000  
O 23.3850000   23.4560000   20.8140000  
O 16.4090000   25.9540000   22.6860000  
O 15.3030000   23.4350000   22.2190000  
H 20.0520000   20.9290000   21.1130000  
H 22.0670000   20.6880000   21.0040000  
H 21.2560000   25.0340000   21.3020000  
H 15.6310000   25.5190000   23.1460000  
H 15.0560000   22.6330000   21.7840000  
H 19.0360000   26.1970000   22.0200000  
