78
100 
C  9.4590000   19.0350000   24.8820000  
C  9.0340000   20.3510000   24.5290000  
C  9.9350000   21.1930000   23.8340000  
C 11.0780000   20.6680000   23.3540000  
C 11.5590000   19.3470000   23.6240000  
C 10.6900000   18.5360000   24.4250000  
C  9.8140000   22.5200000   23.2890000  
C 11.0060000   22.7460000   22.5430000  
N 11.7770000   21.5570000   22.5560000  
O 10.8150000   25.0550000   22.3650000  
C 11.5500000   24.0050000   22.0220000  
O 12.5470000   24.0990000   21.3550000  
O 10.9790000   17.1950000   24.6480000  
O  8.5460000   18.2580000   25.5700000  
H  8.1780000   20.8510000   24.8960000  
H  9.0270000   23.2010000   23.4310000  
H 10.1740000   24.8500000   23.0700000  
H 12.7270000   21.4890000   22.2480000  
H 11.7620000   17.0140000   24.0790000  
H  8.7580000   17.3160000   25.3830000  
C 12.8040000   18.7700000   23.0960000  
C 13.7860000   18.3260000   24.0320000  
C 14.9510000   17.8110000   23.6490000  
C 15.4540000   17.8650000   22.3680000  
C 14.5710000   18.3850000   21.4670000  
C 13.2290000   18.8500000   21.7610000  
C 13.8040000   18.3570000   25.4590000  
C 14.9740000   17.6600000   25.8480000  
N 15.7350000   17.3990000   24.7040000  
O 14.4200000   17.5670000   28.1400000  
C 15.2870000   17.1350000   27.2070000  
O 16.2230000   16.4050000   27.4890000  
O 14.9710000   18.5370000   20.1920000  
O 12.3970000   19.3350000   20.7920000  
H 12.9550000   18.5410000   26.1950000  
H 13.8060000   18.1120000   27.7180000  
H 16.6490000   16.9010000   24.6030000  
H 14.1230000   18.6090000   19.6830000  
H 11.5610000   19.6240000   21.1330000  
C 16.8200000   17.3640000   21.8990000  
C 17.0140000   16.0700000   21.3460000  
C 18.2860000   15.6270000   20.9830000  
C 19.4960000   16.3740000   21.0480000  
C 19.3080000   17.7450000   21.5160000  
C 18.0100000   18.1820000   21.9660000  
C 16.1400000   14.9210000   21.0830000  
C 16.9140000   13.8850000   20.5600000  
N 18.2340000   14.3190000   20.4620000  
O 15.1890000   12.3610000   20.6260000  
C 16.3680000   12.5840000   20.0830000  
O 16.9590000   11.7150000   19.4040000  
O 20.4360000   18.4480000   21.7390000  
O 17.9080000   19.4960000   22.4680000  
H 15.0640000   14.8790000   21.3660000  
H 14.8200000   13.1790000   20.9110000  
H 18.9960000   13.7210000   20.1930000  
H 21.1560000   17.9570000   21.2680000  
H 17.0440000   19.8720000   22.5900000  
C 20.8090000   15.8680000   20.5080000  
C 21.1750000   16.1840000   19.1330000  
C 22.3630000   15.6970000   18.6000000  
C 23.1980000   14.8580000   19.3600000  
C 22.8920000   14.5860000   20.7390000  
C 21.7130000   15.1020000   21.2760000  
C 20.5710000   16.9290000   18.0930000  
C 21.2990000   16.7600000   16.9240000  
N 22.4840000   16.0080000   17.2940000  
O 19.8800000   18.0580000   15.5940000  
C 21.0710000   17.4020000   15.6310000  
O 21.8700000   17.2280000   14.7280000  
O 23.6350000   13.7140000   21.5380000  
O 21.4600000   15.0000000   22.6050000  
H 19.6690000   17.5720000   18.2400000  
H 19.8070000   18.3130000   16.5200000  
H 23.1590000   15.6780000   16.6190000  
H 23.0290000   13.3480000   22.2310000  
H 20.5620000   15.3170000   22.7430000  
H 24.0860000   14.3430000   18.9600000  
