78
100 
C  8.6000000   17.0530000   22.3540000  
C  8.1030000   17.9140000   21.3010000  
C  9.0620000   18.5660000   20.5040000  
C 10.3850000   18.4370000   20.7400000  
C 10.9380000   17.6600000   21.7370000  
C 10.0260000   16.9630000   22.6130000  
C  8.9110000   19.5230000   19.4410000  
C 10.1990000   19.9670000   19.0610000  
N 11.0920000   19.2550000   19.8830000  
O  9.4750000   21.5820000   17.5710000  
C 10.6150000   21.0290000   18.0770000  
O 11.7390000   21.3580000   17.8350000  
O 10.4450000   16.2110000   23.6260000  
O  7.7570000   16.1480000   23.0600000  
H  7.0320000   18.0560000   21.1470000  
H  7.9660000   19.9100000   19.0530000  
H  8.7610000   21.1120000   17.9090000  
H 12.0450000   19.4730000   20.1110000  
H 11.4340000   16.2180000   23.7740000  
H  8.2650000   15.4640000   23.4920000  
C 12.4500000   17.6230000   21.8590000  
C 13.1100000   18.0600000   23.0380000  
C 14.4730000   18.0730000   23.1360000  
C 15.2980000   17.6830000   22.0840000  
C 14.7170000   17.1530000   20.8860000  
C 13.2750000   17.0870000   20.8310000  
C 12.5980000   18.7800000   24.2100000  
C 13.7350000   19.2110000   24.9300000  
N 14.8370000   18.8500000   24.2080000  
O 12.5300000   20.4720000   26.5570000  
C 13.7700000   20.2080000   26.0600000  
O 14.8030000   20.6100000   26.6010000  
O 15.4660000   16.5780000   19.8840000  
O 12.7090000   16.5530000   19.7200000  
H 11.6040000   18.7850000   24.5980000  
H 11.9910000   19.9150000   25.9180000  
H 15.8330000   19.1570000   24.4820000  
H 14.9090000   16.4980000   19.0830000  
H 11.7950000   16.8980000   19.6250000  
C 16.7920000   17.8570000   22.1780000  
C 17.5630000   16.8370000   22.7580000  
C 18.9570000   16.9420000   22.6920000  
C 19.6840000   17.9920000   22.1230000  
C 18.8650000   19.0900000   21.6870000  
C 17.4650000   19.0130000   21.6360000  
C 17.3450000   15.5780000   23.3880000  
C 18.5560000   14.9500000   23.5780000  
N 19.5500000   15.8500000   23.2460000  
O 17.5930000   12.8500000   24.1320000  
C 18.7660000   13.5660000   24.0430000  
O 19.7950000   13.0910000   24.4090000  
O 19.4520000   20.1420000   21.0290000  
O 16.6590000   20.0600000   21.3660000  
H 16.3550000   15.0710000   23.4070000  
H 16.9380000   13.5350000   23.7780000  
H 20.5110000   15.6080000   23.3140000  
H 20.3830000   19.9940000   20.9530000  
H 15.7270000   19.8740000   21.5440000  
C 21.1330000   17.9940000   21.9630000  
C 21.7550000   17.0610000   21.0780000  
C 23.0850000   17.0820000   20.8670000  
C 23.9650000   18.0110000   21.4170000  
C 23.4420000   18.9350000   22.3220000  
C 22.0250000   18.9550000   22.5740000  
C 21.2120000   15.9870000   20.2960000  
C 22.2990000   15.4090000   19.6870000  
N 23.5150000   16.0800000   20.0060000  
O 21.0560000   13.6370000   18.7530000  
C 22.2310000   14.2400000   18.8060000  
O 23.1610000   13.8360000   18.1820000  
O 24.2340000   19.8040000   22.9750000  
O 21.5260000   19.8820000   23.4130000  
H 20.1970000   15.7500000   20.2540000  
H 20.5890000   14.1420000   19.4090000  
H 24.3480000   15.8490000   19.6100000  
H 23.6910000   20.4190000   23.4450000  
H 20.7780000   19.4910000   23.8490000  
H 24.9780000   17.9570000   21.2100000  
