78
100 
C 12.4760000   22.4280000   26.3280000  
C 11.1310000   21.9860000   26.4160000  
C 10.8970000   20.6650000   25.9600000  
C 11.8530000   19.9410000   25.2860000  
C 13.1760000   20.3700000   25.1000000  
C 13.4840000   21.6450000   25.7060000  
C  9.7150000   19.8570000   25.9070000  
C 10.0050000   18.7220000   25.1410000  
N 11.3380000   18.8190000   24.7450000  
O  7.7480000   17.9990000   25.3760000  
C  8.9600000   17.7560000   24.7990000  
O  9.0570000   16.8120000   24.0490000  
O 14.7900000   22.0600000   25.7360000  
O 12.8030000   23.6150000   26.8500000  
H 10.2900000   22.5930000   26.7700000  
H  8.7600000   20.1690000   26.2810000  
H  7.9680000   18.6900000   26.0180000  
H 11.7870000   18.1860000   24.1120000  
H 15.3840000   21.3820000   25.4520000  
H 13.8030000   23.5810000   26.7790000  
C 14.1030000   19.5590000   24.3170000  
C 14.0730000   19.5690000   22.8760000  
C 14.9030000   18.7110000   22.2040000  
C 15.7530000   17.7190000   22.8370000  
C 15.7680000   17.7670000   24.2350000  
C 14.9790000   18.6550000   24.9300000  
C 13.3650000   20.3510000   21.8820000  
C 13.9060000   19.9250000   20.6370000  
N 14.8220000   18.8960000   20.7770000  
O 12.3470000   21.2640000   19.3390000  
C 13.3200000   20.3900000   19.3150000  
O 13.7580000   19.9050000   18.2650000  
O 16.5620000   16.8870000   24.8920000  
O 15.2350000   18.6120000   26.2910000  
H 12.6980000   21.2190000   22.1550000  
H 12.3340000   21.6180000   20.2170000  
H 15.2260000   18.3160000   20.0530000  
H 16.4000000   16.8850000   25.8390000  
H 14.5870000   19.1790000   26.7360000  
C 16.5690000   16.8650000   21.9710000  
C 17.3980000   17.4310000   20.9910000  
C 18.0320000   16.6070000   20.1050000  
C 18.0680000   15.2040000   20.1890000  
C 17.2820000   14.5970000   21.1510000  
C 16.5130000   15.4180000   22.0670000  
C 17.7420000   18.7560000   20.5680000  
C 18.4670000   18.7220000   19.4040000  
N 18.7710000   17.2910000   19.1690000  
O 18.6420000   21.0980000   19.1260000  
C 19.0530000   19.8960000   18.6620000  
O 19.8020000   19.7050000   17.6780000  
O 17.3500000   13.2190000   21.2470000  
O 15.7420000   14.7480000   22.9730000  
H 17.4650000   19.6660000   21.1240000  
H 17.8910000   20.9380000   19.7120000  
H 19.2890000   16.8710000   18.3810000  
H 18.0040000   12.9420000   20.5970000  
H 15.5180000   15.2750000   23.7190000  
C 18.9350000   14.3960000   19.2770000  
C 20.3270000   14.4060000   19.4650000  
C 21.1730000   13.7980000   18.6040000  
C 20.7030000   12.9870000   17.5420000  
C 19.3510000   12.8710000   17.4110000  
C 18.4310000   13.6220000   18.2110000  
C 21.1320000   15.0610000   20.4520000  
C 22.4360000   14.9070000   20.1010000  
N 22.4430000   13.9950000   19.0730000  
O 23.5900000   16.3370000   21.6990000  
C 23.6820000   15.4950000   20.6880000  
O 24.7900000   15.2880000   20.2940000  
O 18.9310000   12.0850000   16.3790000  
O 17.1130000   13.5210000   17.9670000  
H 20.6900000   15.7500000   21.1340000  
H 22.6740000   16.3100000   21.9380000  
H 23.2430000   13.6180000   18.6320000  
H 17.9370000   11.9900000   16.3670000  
H 16.5750000   13.9190000   18.6720000  
H 21.4280000   12.2890000   17.1380000  
