78
100 
C 13.6910000   17.3590000   28.8400000  
C 14.1670000   18.4210000   29.6190000  
C 14.9610000   19.3530000   29.0210000  
C 15.2270000   19.2070000   27.6510000  
C 14.6530000   18.2430000   26.7670000  
C 13.9240000   17.2410000   27.4380000  
C 15.5870000   20.6220000   29.4910000  
C 16.0220000   21.2910000   28.3420000  
N 15.9060000   20.3880000   27.2420000  
O 16.7020000   23.2820000   29.2140000  
C 16.3760000   22.6870000   28.0780000  
O 16.5090000   23.1650000   26.9690000  
O 13.4930000   16.1750000   26.7370000  
O 12.9730000   16.3370000   29.4470000  
H 13.7770000   18.5890000   30.6180000  
H 15.3790000   21.1110000   30.4400000  
H 16.7540000   22.6030000   29.9290000  
H 16.0800000   20.6930000   26.2920000  
H 14.0450000   16.1130000   25.8610000  
H 13.2000000   15.5400000   28.9740000  
C 14.9610000   18.3110000   25.3400000  
C 16.2510000   17.9930000   24.8840000  
C 16.5120000   18.0040000   23.5170000  
C 15.5580000   18.1780000   22.5000000  
C 14.2430000   18.3990000   22.9330000  
C 13.9840000   18.4570000   24.3360000  
C 17.5260000   17.8070000   25.5150000  
C 18.4760000   17.5890000   24.5080000  
N 17.8140000   17.7080000   23.2880000  
O 20.3360000   17.0350000   25.9740000  
C 19.8760000   17.1260000   24.6930000  
O 20.6080000   16.8660000   23.7810000  
O 13.2390000   18.5790000   21.9440000  
O 12.6630000   18.5810000   24.6890000  
H 17.7170000   17.7400000   26.6100000  
H 19.4880000   17.3130000   26.4500000  
H 18.1550000   17.3740000   22.3810000  
H 12.3980000   18.2130000   22.3420000  
H 12.5260000   18.1460000   25.5390000  
C 15.9260000   18.0310000   21.0870000  
C 16.0690000   16.7770000   20.4590000  
C 16.4930000   16.6820000   19.1540000  
C 16.7880000   17.7690000   18.3160000  
C 16.5990000   19.0350000   18.9250000  
C 16.1540000   19.1610000   20.2390000  
C 15.8770000   15.4310000   20.9690000  
C 16.2320000   14.6290000   19.9400000  
N 16.5990000   15.4150000   18.7970000  
O 15.8750000   12.6530000   21.1910000  
C 16.1790000   13.1300000   19.9610000  
O 16.4380000   12.3940000   18.9860000  
O 16.8050000   20.1560000   18.1440000  
O 16.0020000   20.4710000   20.7000000  
H 15.6750000   15.0490000   21.9750000  
H 15.7890000   13.4710000   21.7230000  
H 16.8590000   15.0510000   17.9020000  
H 16.8820000   19.9570000   17.2060000  
H 15.6020000   20.3740000   21.6400000  
C 17.3040000   17.6030000   16.8700000  
C 16.5120000   16.8610000   15.9570000  
C 16.9790000   16.7090000   14.6510000  
C 18.0520000   17.4210000   14.1320000  
C 18.7670000   18.1800000   14.9860000  
C 18.4480000   18.2850000   16.3690000  
C 15.3260000   16.0190000   16.0730000  
C 15.1010000   15.4720000   14.8610000  
N 16.0680000   15.9270000   13.9730000  
O 13.3480000   14.0690000   15.5050000  
C 13.9800000   14.6360000   14.5050000  
O 13.7300000   14.4220000   13.3160000  
O 19.8230000   18.9420000   14.5750000  
O 19.2230000   18.9870000   17.2200000  
H 14.7160000   15.9070000   16.9110000  
H 13.6950000   14.5890000   16.2740000  
H 16.0560000   15.4970000   13.0520000  
H 20.4690000   19.0980000   15.2610000  
H 18.6810000   19.2540000   18.0410000  
H 18.2300000   17.4910000   12.9950000  
