78
100 
C 18.5210000   12.7220000   26.8170000  
C 18.6370000   13.2530000   28.0900000  
C 18.1120000   14.5160000   28.2680000  
C 17.6170000   15.2340000   27.1860000  
C 17.5230000   14.7830000   25.8560000  
C 17.9870000   13.4380000   25.6990000  
C 18.1150000   15.3630000   29.4070000  
C 17.8300000   16.6380000   28.8950000  
N 17.4020000   16.4960000   27.5820000  
O 18.0790000   17.7370000   30.9070000  
C 17.9090000   17.9100000   29.6050000  
O 17.8520000   19.0080000   29.0610000  
O 17.9900000   12.8650000   24.4810000  
O 18.9810000   11.4390000   26.5900000  
H 19.0020000   12.6970000   28.9120000  
H 18.5590000   15.1790000   30.3950000  
H 17.9040000   16.7760000   30.9910000  
H 17.4240000   17.2940000   27.0180000  
H 17.8200000   13.5170000   23.7660000  
H 18.6130000   11.1370000   25.6840000  
C 16.8810000   15.4990000   24.7020000  
C 17.4370000   16.7450000   24.2260000  
C 16.8850000   17.4180000   23.1850000  
C 15.7430000   17.0300000   22.5320000  
C 15.1850000   15.8100000   22.9600000  
C 15.7740000   15.0450000   24.0370000  
C 18.6350000   17.4680000   24.6480000  
C 18.6480000   18.6120000   23.8970000  
N 17.5130000   18.6230000   23.0820000  
O 20.6770000   19.6280000   24.8340000  
C 19.6980000   19.6960000   23.8820000  
O 19.6230000   20.6230000   23.0830000  
O 14.1760000   15.1990000   22.2660000  
O 15.2270000   13.8430000   24.3300000  
H 19.3230000   17.2140000   25.4260000  
H 20.4190000   18.8480000   25.3490000  
H 17.2360000   19.3540000   22.5080000  
H 13.6400000   14.5150000   22.8520000  
H 15.5960000   13.4830000   25.1660000  
C 15.1670000   17.7920000   21.3850000  
C 15.9980000   18.2790000   20.3340000  
C 15.4530000   19.0040000   19.2390000  
C 14.1070000   19.3470000   19.1990000  
C 13.2860000   18.9730000   20.3130000  
C 13.7710000   18.1720000   21.3690000  
C 17.4210000   18.2890000   20.0870000  
C 17.6920000   19.0310000   18.9190000  
N 16.4410000   19.4940000   18.4020000  
O 20.0780000   18.7810000   18.9630000  
C 19.0480000   19.3260000   18.3480000  
O 19.2660000   19.9700000   17.3480000  
O 11.9800000   19.3440000   20.2900000  
O 12.9270000   17.7740000   22.3920000  
H 18.1050000   17.6530000   20.6650000  
H 19.7440000   18.5510000   19.8220000  
H 16.2670000   20.0340000   17.5840000  
H 11.9290000   19.6690000   19.4240000  
H 13.2300000   16.8860000   22.6330000  
C 13.5980000   20.0950000   18.0070000  
C 13.4730000   19.4130000   16.7710000  
C 12.6440000   19.7980000   15.7490000  
C 12.1140000   21.0660000   15.7920000  
C 12.2930000   21.8600000   16.9320000  
C 12.9710000   21.3480000   18.0690000  
C 13.9780000   18.1210000   16.3870000  
C 13.6550000   17.8710000   15.0930000  
N 12.7090000   18.8310000   14.7270000  
O 15.0350000   15.9050000   14.7950000  
C 14.1550000   16.7480000   14.2040000  
O 13.7690000   16.5700000   13.0640000  
O 11.6530000   23.0870000   17.0110000  
O 13.0230000   22.1220000   19.2360000  
H 14.6970000   17.5800000   16.9540000  
H 14.9850000   16.1470000   15.7040000  
H 12.1390000   18.7920000   13.8560000  
H 11.7130000   23.2670000   18.0250000  
H 13.6250000   21.5820000   19.7820000  
H 11.5090000   21.3260000   14.8520000  
