78
100 
C  9.0320000   17.9820000   19.6750000  
C  8.2170000   18.7500000   20.5870000  
C  8.8500000   19.2890000   21.7300000  
C 10.1860000   18.9830000   21.9370000  
C 10.9700000   18.1880000   21.1070000  
C 10.4630000   17.7830000   19.8750000  
C  8.3560000   20.0420000   22.8530000  
C  9.4270000   20.2020000   23.6840000  
N 10.5430000   19.6180000   23.0810000  
O  8.2590000   20.9680000   25.5380000  
C  9.5100000   20.7020000   25.0680000  
O 10.5390000   20.7060000   25.6750000  
O 11.1710000   17.1220000   18.8970000  
O  8.4080000   17.5760000   18.5160000  
H  7.1390000   18.9200000   20.4890000  
H  7.3340000   20.4210000   23.0610000  
H  7.6350000   20.5720000   24.8860000  
H 11.5350000   19.6400000   23.4580000  
H 12.0130000   16.9960000   19.3120000  
H  9.1010000   17.1100000   18.0900000  
C 12.4410000   18.2180000   21.2680000  
C 13.0780000   17.0670000   21.6430000  
C 14.4090000   17.0130000   21.7140000  
C 15.3400000   18.1290000   21.4290000  
C 14.6900000   19.3050000   20.9630000  
C 13.2730000   19.3140000   20.8550000  
C 12.5370000   15.7170000   21.7490000  
C 13.6530000   14.9160000   21.9870000  
N 14.8300000   15.7670000   21.9550000  
O 12.4300000   12.9580000   22.2610000  
C 13.6430000   13.4310000   22.1430000  
O 14.6540000   12.6840000   22.1530000  
O 15.3820000   20.4550000   20.6840000  
O 12.7010000   20.4510000   20.4100000  
H 11.4730000   15.4840000   21.7510000  
H 11.8130000   13.7090000   22.1530000  
H 15.7430000   15.4430000   22.2800000  
H 14.7230000   21.1000000   20.5050000  
H 11.8500000   20.2440000   19.9500000  
C 16.8010000   17.9790000   21.6610000  
C 17.5940000   17.0120000   20.9890000  
C 18.8500000   16.7510000   21.3450000  
C 19.5710000   17.4390000   22.3320000  
C 18.8370000   18.4340000   23.0140000  
C 17.4940000   18.6840000   22.6660000  
C 17.3380000   16.0380000   19.9350000  
C 18.5170000   15.3190000   19.6980000  
N 19.5010000   15.8290000   20.5530000  
O 17.6390000   14.0740000   17.9120000  
C 18.7050000   14.2820000   18.7220000  
O 19.7510000   13.6340000   18.5940000  
O 19.4370000   19.1470000   24.0040000  
O 16.8280000   19.6620000   23.3950000  
H 16.3700000   16.0020000   19.3690000  
H 16.9840000   14.4830000   18.4530000  
H 20.4540000   15.5660000   20.5800000  
H 20.2120000   18.6040000   24.2160000  
H 16.0430000   19.9950000   22.8560000  
C 20.9700000   17.0540000   22.7060000  
C 22.0940000   17.9820000   22.4860000  
C 23.3590000   17.6780000   22.8800000  
C 23.6960000   16.4160000   23.4110000  
C 22.6410000   15.4540000   23.6040000  
C 21.3390000   15.7990000   23.2960000  
C 22.1420000   19.3500000   22.0710000  
C 23.4200000   19.7970000   22.1700000  
N 24.2030000   18.7750000   22.6880000  
O 22.8890000   21.9550000   21.4940000  
C 23.8830000   21.1270000   21.8630000  
O 25.0190000   21.4170000   21.8820000  
O 23.0480000   14.2880000   24.1430000  
O 20.2750000   14.8740000   23.4540000  
H 21.3510000   19.8940000   21.5290000  
H 22.1000000   21.3650000   21.3530000  
H 25.1500000   18.8010000   22.6800000  
H 22.2850000   13.7940000   24.4730000  
H 19.4900000   15.4490000   23.2930000  
H 24.6140000   16.0510000   23.8210000  
