78
100 
C 12.5200000   11.8230000   18.4030000  
C 11.6200000   11.3050000   19.4240000  
C 11.3390000   12.1300000   20.5010000  
C 11.9490000   13.2960000   20.6250000  
C 12.9630000   13.8630000   19.8020000  
C 13.2270000   13.0930000   18.6510000  
C 10.4670000   11.9930000   21.6710000  
C 10.6660000   13.1000000   22.4690000  
N 11.6260000   13.8960000   21.8130000  
O  9.1710000   12.5460000   24.2190000  
C  9.8820000   13.5310000   23.6590000  
O 10.0130000   14.6520000   24.1170000  
O 14.2560000   13.4500000   17.8620000  
O 13.0250000   10.9960000   17.4800000  
H 11.2500000   10.2270000   19.3560000  
H  9.7280000   11.2540000   21.8510000  
H  9.3170000   11.8550000   23.6160000  
H 12.0170000   14.7770000   22.0860000  
H 14.3520000   14.3470000   18.2090000  
H 13.5930000   11.4960000   16.8770000  
C 13.8800000   15.0190000   20.1030000  
C 15.1680000   14.8730000   20.6210000  
C 15.9050000   15.9560000   21.1820000  
C 15.5180000   17.3170000   20.9930000  
C 14.2450000   17.5190000   20.3300000  
C 13.4600000   16.3830000   19.9530000  
C 15.9080000   13.6990000   20.8890000  
C 17.0400000   14.1170000   21.6190000  
N 17.0420000   15.5030000   21.8660000  
O 17.7440000   11.9880000   22.0800000  
C 18.1290000   13.2730000   22.1270000  
O 19.1660000   13.6550000   22.6540000  
O 13.7470000   18.7580000   20.1050000  
O 12.2440000   16.5830000   19.4410000  
H 15.6740000   12.6780000   20.6320000  
H 16.7450000   11.9750000   21.7990000  
H 17.6160000   16.0270000   22.4790000  
H 12.8410000   18.6680000   19.6470000  
H 11.8530000   15.6800000   19.5040000  
C 16.3040000   18.4710000   21.6460000  
C 17.4170000   18.9900000   20.9160000  
C 18.2600000   19.8530000   21.5200000  
C 18.2100000   20.3460000   22.8190000  
C 17.0570000   19.9080000   23.5350000  
C 16.1440000   18.9040000   22.9810000  
C 17.9730000   18.7130000   19.6200000  
C 19.1330000   19.4600000   19.4850000  
N 19.2530000   20.2040000   20.6280000  
O 19.8240000   18.6270000   17.4120000  
C 20.0900000   19.5180000   18.3420000  
O 21.1350000   20.1660000   18.2280000  
O 16.8090000   20.2200000   24.7840000  
O 15.0690000   18.4620000   23.7380000  
H 17.5270000   18.0480000   18.8730000  
H 18.9290000   18.2960000   17.6490000  
H 19.9350000   20.8630000   20.9390000  
H 15.9970000   19.7870000   25.0430000  
H 14.5460000   17.8300000   23.2550000  
C 19.2360000   21.2430000   23.4720000  
C 18.8600000   22.5390000   23.9220000  
C 19.7310000   23.4380000   24.5320000  
C 21.0780000   23.0920000   24.6960000  
C 21.5490000   21.8090000   24.2560000  
C 20.5720000   20.8600000   23.7460000  
C 17.5150000   23.1580000   24.1070000  
C 17.7150000   24.3920000   24.7260000  
N 19.0650000   24.5330000   24.9790000  
O 15.4810000   25.2260000   24.4080000  
C 16.7290000   25.4740000   24.9240000  
O 16.9440000   26.4270000   25.6000000  
O 22.8820000   21.5000000   24.5720000  
O 20.9530000   19.5860000   23.5960000  
H 16.5080000   22.6780000   23.7940000  
H 15.7360000   24.4600000   23.8950000  
H 19.5000000   25.3510000   25.3600000  
H 22.9340000   20.5650000   24.5830000  
H 20.2120000   19.0500000   23.4590000  
H 21.7460000   23.8370000   25.2430000  
