78
100 
C  9.0520000   15.0330000   22.3830000  
C  8.4650000   14.9290000   21.0710000  
C  9.3120000   15.3400000   20.0140000  
C 10.6120000   15.7090000   20.2180000  
C 11.2440000   15.7880000   21.4550000  
C 10.4540000   15.3640000   22.5720000  
C  9.1320000   15.2590000   18.5890000  
C 10.3560000   15.6260000   18.0400000  
N 11.2550000   16.0250000   19.0830000  
O  9.7190000   14.9700000   15.9480000  
C 10.7040000   15.5930000   16.6560000  
O 11.8100000   15.9430000   16.2890000  
O 10.9670000   15.5030000   23.8310000  
O  8.3460000   14.7870000   23.4980000  
H  7.4890000   14.5280000   20.8590000  
H  8.2770000   14.8300000   18.0140000  
H  9.0000000   14.8430000   16.6780000  
H 12.2190000   16.1620000   18.9600000  
H 11.9150000   15.3980000   23.8140000  
H  9.0250000   14.8950000   24.2210000  
C 12.5730000   16.3380000   21.5580000  
C 12.8650000   17.7460000   21.7720000  
C 14.2000000   18.1380000   21.7220000  
C 15.3810000   17.3590000   21.5130000  
C 15.0640000   15.9780000   21.3670000  
C 13.7040000   15.5160000   21.4070000  
C 12.0960000   18.9580000   21.9060000  
C 13.0500000   20.0060000   22.0870000  
N 14.3150000   19.4980000   21.9330000  
O 11.3700000   21.6470000   22.2650000  
C 12.6740000   21.4270000   22.1050000  
O 13.5030000   22.3380000   22.0280000  
O 16.0460000   15.0310000   21.4580000  
O 13.5110000   14.1710000   21.1860000  
H 11.0290000   18.9750000   21.6180000  
H 10.9610000   20.7620000   22.3800000  
H 15.2100000   20.0450000   21.9420000  
H 15.6230000   14.1240000   21.4240000  
H 12.5510000   14.0780000   21.0160000  
C 16.7320000   18.0170000   21.4720000  
C 17.4220000   18.3280000   22.6790000  
C 18.6640000   18.8050000   22.6210000  
C 19.5080000   18.8910000   21.4990000  
C 18.8580000   18.5140000   20.2790000  
C 17.4960000   18.0160000   20.2750000  
C 16.9990000   18.1610000   24.0090000  
C 18.0870000   18.6410000   24.7890000  
N 19.0790000   19.0910000   23.8940000  
O 17.2970000   18.0740000   26.9500000  
C 18.2920000   18.7020000   26.2450000  
O 19.2010000   19.2600000   26.8060000  
O 19.5820000   18.2660000   19.1300000  
O 16.8720000   17.5190000   19.1820000  
H 16.0140000   17.8240000   24.4000000  
H 16.6410000   17.8290000   26.3360000  
H 20.0320000   19.4130000   24.1620000  
H 20.4860000   18.6010000   19.3210000  
H 15.9150000   17.5340000   19.3580000  
C 20.9520000   19.1850000   21.6170000  
C 21.9050000   18.5690000   22.5430000  
C 23.2140000   18.9170000   22.6170000  
C 23.8350000   19.8660000   21.8030000  
C 23.0140000   20.4460000   20.8390000  
C 21.5780000   20.2220000   20.8050000  
C 21.7400000   17.4890000   23.4550000  
C 22.9530000   17.3280000   24.1600000  
N 23.8690000   18.1480000   23.5560000  
O 21.9710000   15.9100000   25.7270000  
C 23.1330000   16.4750000   25.3820000  
O 24.1940000   16.3460000   25.9130000  
O 23.5410000   21.4660000   20.0270000  
O 20.8950000   20.8930000   19.8180000  
H 20.8060000   16.9180000   23.6710000  
H 21.4270000   16.1530000   25.0300000  
H 24.8500000   18.1450000   23.7270000  
H 22.7340000   21.9620000   19.7230000  
H 19.8790000   20.6180000   19.8590000  
H 24.9080000   20.1970000   21.8320000  
