78
100 
C 14.1300000   10.7560000   19.8140000  
C 13.0720000   10.2410000   20.6130000  
C 12.5520000   11.0620000   21.6310000  
C 13.1160000   12.3190000   21.8600000  
C 14.2760000   12.8290000   21.2570000  
C 14.7310000   11.9790000   20.2170000  
C 11.3920000   10.9930000   22.4650000  
C 11.4300000   12.1280000   23.3230000  
N 12.4750000   13.0020000   22.9020000  
O  9.7000000   11.2020000   24.5920000  
C 10.4880000   12.2680000   24.4530000  
O 10.5160000   13.2420000   25.1830000  
O 15.8320000   12.3520000   19.5000000  
O 14.4840000   10.0810000   18.6580000  
H 12.4970000    9.3710000   20.3870000  
H 10.5690000   10.2790000   22.4780000  
H 10.0180000   10.6260000   23.9060000  
H 12.6340000   13.9320000   23.2220000  
H 16.1180000   13.1490000   19.9800000  
H 15.0330000   10.6700000   18.0980000  
C 14.8550000   14.2040000   21.5390000  
C 16.1960000   14.4530000   21.9470000  
C 16.6290000   15.7010000   22.2210000  
C 15.9260000   16.9020000   22.0250000  
C 14.6130000   16.6600000   21.4690000  
C 14.1540000   15.3540000   21.1790000  
C 17.3060000   13.6100000   22.3960000  
C 18.3480000   14.4370000   22.8050000  
N 17.9410000   15.7410000   22.6290000  
O 19.5130000   12.6740000   23.6690000  
C 19.5250000   14.0110000   23.4800000  
O 20.3720000   14.7390000   24.0040000  
O 13.8230000   17.7320000   21.1780000  
O 12.8680000   15.2110000   20.5460000  
H 17.3660000   12.5190000   22.4790000  
H 18.8810000   12.2410000   23.1410000  
H 18.4650000   16.5290000   23.0070000  
H 12.8950000   17.4670000   21.0420000  
H 12.8330000   14.2520000   20.1940000  
C 16.5710000   18.2470000   22.2350000  
C 16.8910000   19.0340000   21.0400000  
C 17.4060000   20.2670000   21.2050000  
C 17.8560000   20.8360000   22.4070000  
C 17.6760000   20.0380000   23.5360000  
C 16.9530000   18.7790000   23.4540000  
C 16.6520000   18.8540000   19.6360000  
C 17.1340000   20.0130000   19.0240000  
N 17.5210000   20.9600000   20.0140000  
O 16.4280000   19.1610000   16.8940000  
C 17.1510000   20.1620000   17.5400000  
O 17.6190000   21.1260000   16.9770000  
O 18.1330000   20.5320000   24.7190000  
O 16.6780000   18.1240000   24.6040000  
H 16.2530000   17.9780000   19.2320000  
H 16.0620000   18.5800000   17.5950000  
H 17.8510000   21.8580000   19.8180000  
H 18.3790000   21.4430000   24.5400000  
H 16.4280000   17.2070000   24.4230000  
C 18.5670000   22.1480000   22.4320000  
C 17.9230000   23.3910000   22.1340000  
C 18.5060000   24.6170000   22.2540000  
C 19.8420000   24.7630000   22.7380000  
C 20.4740000   23.5710000   23.0240000  
C 19.9240000   22.2800000   22.8520000  
C 16.5370000   23.5950000   21.7780000  
C 16.3670000   24.9980000   21.7580000  
N 17.5460000   25.6080000   22.1160000  
O 14.1800000   24.7560000   20.9550000  
C 15.0680000   25.5920000   21.3560000  
O 14.8540000   26.8410000   21.3610000  
O 21.7050000   23.7700000   23.5110000  
O 20.6920000   21.2230000   23.2550000  
H 15.8700000   22.9100000   21.5060000  
H 14.7710000   24.0400000   20.7000000  
H 17.7790000   26.6180000   22.1010000  
H 22.0800000   23.0380000   23.9670000  
H 20.3150000   20.3570000   23.0860000  
H 20.1770000   25.7970000   23.0570000  
