78
100 
C 15.7020000   16.7140000   29.3050000  
C 16.9600000   17.0220000   29.8880000  
C 18.0700000   17.2670000   29.0510000  
C 17.8180000   17.4020000   27.7040000  
C 16.6000000   17.1930000   27.0040000  
C 15.5260000   16.8300000   27.9320000  
C 19.3560000   17.6610000   29.3570000  
C 19.9640000   17.9550000   28.0920000  
N 19.0010000   17.6870000   27.0920000  
O 22.1270000   18.3350000   29.0340000  
C 21.3810000   18.3680000   27.9600000  
O 21.9160000   18.6480000   26.9040000  
O 14.2970000   16.7850000   27.3610000  
O 14.6440000   16.4560000   30.1630000  
H 17.0160000   16.9200000   30.9470000  
H 19.7910000   17.7330000   30.2880000  
H 21.4620000   17.9510000   29.6920000  
H 19.2740000   17.6070000   26.1040000  
H 14.4380000   16.9420000   26.4010000  
H 13.8340000   16.5970000   29.6670000  
C 16.3750000   17.4740000   25.5090000  
C 16.8190000   16.5380000   24.5420000  
C 16.6910000   16.7330000   23.2170000  
C 16.0110000   17.8700000   22.6620000  
C 15.5930000   18.8880000   23.6150000  
C 15.6990000   18.6250000   25.0130000  
C 17.4320000   15.2370000   24.6590000  
C 17.6090000   14.7330000   23.3450000  
N 17.1960000   15.7000000   22.4530000  
O 18.5460000   12.6040000   23.9370000  
C 18.1980000   13.4480000   22.9350000  
O 18.3040000   13.1640000   21.7590000  
O 15.0980000   20.0930000   23.1670000  
O 15.0530000   19.5180000   25.8210000  
H 17.5340000   14.6560000   25.5620000  
H 18.6970000   13.1400000   24.7870000  
H 17.0350000   15.5540000   21.4460000  
H 14.7330000   20.5680000   23.9040000  
H 15.1700000   19.0840000   26.6430000  
C 15.9190000   18.0550000   21.2310000  
C 14.7580000   17.5830000   20.6310000  
C 14.6600000   17.5250000   19.2470000  
C 15.7010000   18.0440000   18.3990000  
C 16.8690000   18.6090000   19.0520000  
C 16.9830000   18.6040000   20.4660000  
C 13.5510000   16.9920000   21.1330000  
C 12.7230000   16.7010000   20.0220000  
N 13.4250000   17.0660000   18.8220000  
O 10.8710000   15.7470000   21.2370000  
C 11.4010000   16.0700000   20.0320000  
O 10.8310000   15.8580000   18.9630000  
O 17.9060000   19.1210000   18.3380000  
O 18.0580000   19.1480000   21.0350000  
H 13.2420000   16.7300000   22.0960000  
H 11.4970000   16.0090000   21.9190000  
H 13.0450000   17.0650000   17.8710000  
H 18.4000000   19.6940000   18.9360000  
H 18.0580000   18.8410000   21.9480000  
C 15.5650000   17.9890000   16.8910000  
C 15.2750000   19.1150000   16.0830000  
C 15.0350000   19.0070000   14.6920000  
C 14.9040000   17.7530000   14.0470000  
C 15.1160000   16.5890000   14.8430000  
C 15.5190000   16.7600000   16.1830000  
C 15.3290000   20.5820000   16.3090000  
C 14.8850000   21.1870000   15.1130000  
N 14.7470000   20.2390000   14.0890000  
O 15.0860000   23.3180000   16.0530000  
C 14.7140000   22.6300000   14.9840000  
O 14.3450000   23.1250000   13.9040000  
O 15.1140000   15.3800000   14.2670000  
O 15.7500000   15.6000000   16.8540000  
H 15.7800000   21.0290000   17.1400000  
H 15.2900000   22.6240000   16.7000000  
H 14.2060000   20.3850000   13.2210000  
H 15.3970000   14.8150000   14.9620000  
H 15.7170000   15.8570000   17.8160000  
H 14.7720000   17.6810000   12.9700000  
