78
100 
C 10.8390000   14.8600000   17.8950000  
C  9.9040000   13.9870000   18.6100000  
C 10.1990000   13.6590000   19.9160000  
C 11.2980000   14.1690000   20.5560000  
C 12.2200000   14.9890000   19.9210000  
C 11.9840000   15.3050000   18.5680000  
C  9.4590000   12.8780000   20.8800000  
C 10.1220000   13.1100000   22.1300000  
N 11.3060000   13.8010000   21.9040000  
O  8.4280000   12.0340000   23.4140000  
C  9.5710000   12.7640000   23.4540000  
O 10.0570000   13.1390000   24.5150000  
O 12.8000000   16.2210000   17.8610000  
O 10.6630000   15.0120000   16.5740000  
H  8.9840000   13.6370000   18.2070000  
H  8.4570000   12.3920000   20.8300000  
H  8.2230000   11.8240000   22.4670000  
H 12.1010000   13.8370000   22.5720000  
H 13.5820000   16.2500000   18.4390000  
H 11.3710000   15.5630000   16.3140000  
C 13.3410000   15.6740000   20.6930000  
C 14.6700000   15.2460000   20.5520000  
C 15.6530000   15.8340000   21.2620000  
C 15.5000000   17.0200000   22.0640000  
C 14.1640000   17.5040000   22.1360000  
C 13.0900000   16.8220000   21.4760000  
C 15.2980000   14.2710000   19.7410000  
C 16.6900000   14.5570000   19.8020000  
N 16.8850000   15.4030000   20.7960000  
O 17.3230000   13.1520000   17.9700000  
C 17.7390000   13.9460000   18.9650000  
O 18.9140000   14.2050000   19.0730000  
O 13.8530000   18.5780000   22.9290000  
O 11.8320000   17.3620000   21.4870000  
H 14.7990000   13.8350000   18.8830000  
H 16.3350000   13.2300000   18.0130000  
H 17.7550000   15.6890000   21.1540000  
H 12.9400000   18.9780000   22.6290000  
H 11.4600000   17.1760000   20.5930000  
C 16.6550000   17.7100000   22.6840000  
C 17.3000000   18.5880000   21.8380000  
C 18.4430000   19.2740000   22.2820000  
C 19.0390000   19.0720000   23.5480000  
C 18.4750000   17.9870000   24.3260000  
C 17.2730000   17.3370000   23.9200000  
C 17.0370000   19.1480000   20.5390000  
C 17.9700000   20.2160000   20.3700000  
N 18.8700000   20.2240000   21.4700000  
O 16.9410000   20.8990000   18.2510000  
C 17.9780000   21.0860000   19.1830000  
O 18.9130000   21.8040000   18.8920000  
O 19.0000000   17.5980000   25.4730000  
O 16.7080000   16.3240000   24.6130000  
H 16.2440000   18.9170000   19.8460000  
H 16.3430000   20.4170000   18.7870000  
H 19.7440000   20.7820000   21.6210000  
H 18.2810000   16.9890000   25.7690000  
H 16.0810000   15.9900000   23.9270000  
C 20.2660000   19.8820000   23.9980000  
C 20.1740000   21.3250000   24.0990000  
C 21.2710000   22.1230000   24.4940000  
C 22.5410000   21.5220000   24.6830000  
C 22.6510000   20.1230000   24.5910000  
C 21.5190000   19.3070000   24.3170000  
C 19.0420000   22.2290000   23.9710000  
C 19.4960000   23.4980000   24.2000000  
N 20.8540000   23.4170000   24.5850000  
O 17.4010000   24.5790000   23.8070000  
C 18.7130000   24.7450000   24.1260000  
O 19.2410000   25.8500000   24.2660000  
O 23.8570000   19.5680000   24.7980000  
O 21.7040000   17.9410000   24.2810000  
H 17.9680000   21.8940000   23.7960000  
H 17.1880000   23.6470000   23.8070000  
H 21.4500000   24.2180000   24.7690000  
H 23.6810000   18.6380000   24.9400000  
H 20.9370000   17.4170000   24.4070000  
H 23.4320000   22.0730000   24.9870000  
