78
100 
C 17.7430000   12.4410000   26.8780000  
C 18.2240000   11.2380000   26.2070000  
C 18.1760000   11.2260000   24.8220000  
C 17.8900000   12.3880000   24.0880000  
C 17.4840000   13.5490000   24.7070000  
C 17.3700000   13.5460000   26.1330000  
C 18.5210000   10.2100000   23.8610000  
C 18.4970000   10.8770000   22.6550000  
N 18.0620000   12.1600000   22.7490000  
O 18.9920000    8.9000000   21.2980000  
C 18.6610000   10.2190000   21.3310000  
O 18.4440000   10.7530000   20.2550000  
O 16.8890000   14.6600000   26.7940000  
O 17.8090000   12.5270000   28.2050000  
H 18.5410000   10.2960000   26.7310000  
H 18.7700000    9.1350000   24.0240000  
H 19.0680000    8.6200000   22.2600000  
H 17.8920000   12.7750000   21.9930000  
H 16.5840000   15.4390000   26.2160000  
H 17.4500000   13.4080000   28.4950000  
C 17.1610000   14.8240000   23.9820000  
C 15.8260000   15.2990000   24.0280000  
C 15.5040000   16.4530000   23.3200000  
C 16.4300000   17.1460000   22.5280000  
C 17.7760000   16.6340000   22.5020000  
C 18.1630000   15.5320000   23.2620000  
C 14.6100000   14.8840000   24.6710000  
C 13.6120000   15.7800000   24.2830000  
N 14.1660000   16.7410000   23.3990000  
O 12.0120000   14.9390000   25.7850000  
C 12.1810000   15.7670000   24.7390000  
O 11.3500000   16.5050000   24.2220000  
O 18.7340000   17.2360000   21.7380000  
O 19.4370000   15.1060000   23.1990000  
H 14.4880000   13.9730000   25.1890000  
H 12.8280000   14.5460000   25.8620000  
H 13.6120000   17.5300000   22.9500000  
H 19.5960000   16.8970000   21.8800000  
H 19.6090000   14.5410000   23.9310000  
C 15.9970000   18.2800000   21.6130000  
C 16.1270000   19.6170000   22.0790000  
C 15.6310000   20.7160000   21.3720000  
C 15.1030000   20.5940000   20.1010000  
C 14.9410000   19.2380000   19.6160000  
C 15.4360000   18.1000000   20.3000000  
C 16.6600000   20.2140000   23.2810000  
C 16.4590000   21.6160000   23.2370000  
N 15.8200000   21.9400000   22.0280000  
O 17.5630000   22.1090000   25.2750000  
C 16.9050000   22.6170000   24.1830000  
O 16.7560000   23.8070000   24.0050000  
O 14.3310000   18.9820000   18.3700000  
O 15.3140000   16.8270000   19.8660000  
H 17.1190000   19.7150000   24.1480000  
H 17.5920000   21.1740000   25.0120000  
H 15.5720000   22.8200000   21.6610000  
H 14.0900000   18.0180000   18.3040000  
H 16.1200000   16.4700000   20.2650000  
C 14.6330000   21.7290000   19.3220000  
C 15.0930000   22.0720000   18.0260000  
C 14.7790000   23.2570000   17.4440000  
C 13.8060000   24.1230000   17.9590000  
C 13.2050000   23.7740000   19.1890000  
C 13.6400000   22.6110000   19.8520000  
C 16.0340000   21.4690000   17.0970000  
C 16.2160000   22.3270000   16.0010000  
N 15.3790000   23.4450000   16.2360000  
O 17.8520000   20.8870000   15.0310000  
C 17.1810000   22.0680000   14.9370000  
O 17.2410000   22.7010000   13.9090000  
O 12.2330000   24.5370000   19.6460000  
O 12.9150000   22.1540000   20.9030000  
H 16.5240000   20.5170000   17.2920000  
H 17.6750000   20.5570000   15.9150000  
H 15.2910000   24.2630000   15.7330000  
H 11.8550000   24.2050000   20.4900000  
H 13.1440000   21.2730000   21.0750000  
H 13.7290000   25.1330000   17.5250000  
