78
100 
C 14.4190000   18.8160000   28.9170000  
C 13.5390000   19.9210000   29.0010000  
C 13.0510000   20.4360000   27.8160000  
C 13.4930000   19.8940000   26.6370000  
C 14.4310000   18.8610000   26.4450000  
C 14.9200000   18.3670000   27.6300000  
C 12.0170000   21.3810000   27.5730000  
C 11.7070000   21.1970000   26.1840000  
N 12.6750000   20.3080000   25.6100000  
O  9.7220000   22.4700000   26.1920000  
C 10.6030000   21.7770000   25.4020000  
O 10.5410000   21.7240000   24.2060000  
O 15.7630000   17.2750000   27.5640000  
O 14.6890000   18.1010000   30.0240000  
H 13.0740000   20.1250000   29.9780000  
H 11.4130000   22.0100000   28.2360000  
H  9.9710000   22.1790000   27.0970000  
H 12.6290000   19.9050000   24.6970000  
H 16.0520000   17.2030000   26.6760000  
H 15.2000000   17.2950000   29.7640000  
C 14.7060000   18.3120000   25.1020000  
C 15.3570000   19.1570000   24.1920000  
C 15.5180000   18.8020000   22.8820000  
C 15.1220000   17.5970000   22.3480000  
C 14.5320000   16.6630000   23.2670000  
C 14.2620000   17.0760000   24.5880000  
C 15.9400000   20.4760000   24.3820000  
C 16.4670000   20.8280000   23.1150000  
N 16.2250000   19.7540000   22.1920000  
O 17.3860000   22.8960000   23.8190000  
C 17.2900000   21.9820000   22.7790000  
O 17.7700000   22.1320000   21.6640000  
O 14.1440000   15.4380000   22.8350000  
O 13.5580000   16.2790000   25.3800000  
H 16.1850000   20.9930000   25.3020000  
H 16.9720000   22.4160000   24.5200000  
H 16.7030000   19.6730000   21.2910000  
H 13.6940000   14.8990000   23.4750000  
H 13.6180000   16.7070000   26.2630000  
C 15.6220000   17.2420000   21.0050000  
C 16.9980000   16.9810000   20.8050000  
C 17.4700000   16.7430000   19.5300000  
C 16.7080000   16.6500000   18.3460000  
C 15.2880000   16.8920000   18.5400000  
C 14.7750000   17.2040000   19.8490000  
C 18.1500000   16.9160000   21.5930000  
C 19.3050000   16.7560000   20.7970000  
N 18.8360000   16.6450000   19.4900000  
O 20.8690000   16.9920000   22.5660000  
C 20.7280000   16.8230000   21.2860000  
O 21.6580000   16.9820000   20.4950000  
O 14.4750000   16.8240000   17.4450000  
O 13.4850000   17.5070000   20.0340000  
H 18.2080000   16.9810000   22.7060000  
H 20.0300000   16.8370000   22.9610000  
H 19.3500000   16.4710000   18.6570000  
H 15.0750000   16.7520000   16.6260000  
H 13.4230000   17.7310000   20.9430000  
C 17.4080000   16.1880000   17.0460000  
C 18.1060000   14.9000000   17.0550000  
C 18.7410000   14.5090000   15.9400000  
C 18.7300000   15.2600000   14.7660000  
C 17.9970000   16.4530000   14.7220000  
C 17.3710000   16.9610000   15.9020000  
C 18.1730000   13.9220000   18.0200000  
C 19.0520000   12.9560000   17.6020000  
N 19.4360000   13.3430000   16.3060000  
O 19.0380000   11.6680000   19.6410000  
C 19.4560000   11.7590000   18.3520000  
O 20.2650000   10.9530000   17.8470000  
O 18.0360000   17.2590000   13.6170000  
O 16.7650000   18.2080000   15.9340000  
H 17.6550000   13.9300000   18.9980000  
H 18.2800000   12.2520000   19.7570000  
H 20.0460000   12.8990000   15.7510000  
H 17.4900000   18.0190000   13.8900000  
H 16.4450000   18.3520000   16.8450000  
H 19.3410000   14.9870000   13.9200000  
