78
100 
C 15.7020000   21.2250000   28.5770000  
C 15.6870000   20.2890000   29.6030000  
C 15.6870000   18.9630000   29.2170000  
C 15.8650000   18.6050000   27.8820000  
C 15.9920000   19.5290000   26.8050000  
C 15.8130000   20.8680000   27.2500000  
C 15.7830000   17.7050000   29.9650000  
C 15.8490000   16.6610000   28.9980000  
N 15.9060000   17.2160000   27.7460000  
O 16.1470000   14.8620000   30.6270000  
C 16.0090000   15.2200000   29.3100000  
O 15.9580000   14.3370000   28.4550000  
O 16.0100000   21.8830000   26.3890000  
O 15.5470000   22.5260000   28.9120000  
H 15.4930000   20.5930000   30.6280000  
H 15.7410000   17.5170000   31.0620000  
H 16.2690000   15.7000000   31.0250000  
H 16.0660000   16.7010000   26.8730000  
H 15.8060000   21.6480000   25.4900000  
H 15.7900000   23.0780000   28.1390000  
C 16.1130000   19.0460000   25.3620000  
C 15.0780000   19.4000000   24.3990000  
C 15.1730000   18.9470000   23.0930000  
C 16.1580000   18.0330000   22.6310000  
C 17.1300000   17.6820000   23.6070000  
C 17.1040000   18.1660000   24.9300000  
C 13.7740000   20.0470000   24.4410000  
C 13.0800000   19.6730000   23.2940000  
N 13.9660000   19.0040000   22.4530000  
O 11.1510000   20.9170000   23.8210000  
C 11.7430000   20.1460000   22.9210000  
O 11.1200000   19.8510000   21.8790000  
O 18.2230000   16.8950000   23.1650000  
O 18.2550000   18.0130000   25.6490000  
H 13.3710000   20.5520000   25.3050000  
H 11.6060000   20.7930000   24.7200000  
H 13.8600000   18.8330000   21.4960000  
H 18.8270000   16.7730000   23.9450000  
H 18.3250000   18.7560000   26.2720000  
C 16.1630000   17.3530000   21.2980000  
C 16.2900000   18.0870000   20.0890000  
C 16.3240000   17.4540000   18.8470000  
C 16.1120000   16.0880000   18.7040000  
C 15.9330000   15.3960000   19.8950000  
C 15.8670000   16.0170000   21.1690000  
C 16.5050000   19.5230000   19.7960000  
C 16.8560000   19.6050000   18.4290000  
N 16.6190000   18.3550000   17.8310000  
O 17.4650000   21.9300000   18.5190000  
C 17.2740000   20.8700000   17.7420000  
O 17.5360000   21.0120000   16.5580000  
O 15.8960000   14.0650000   19.9220000  
O 15.6940000   15.2710000   22.2670000  
H 16.6190000   20.2820000   20.5020000  
H 17.2020000   21.6830000   19.4400000  
H 16.6430000   18.0570000   16.8930000  
H 15.4190000   13.8220000   19.0800000  
H 16.1550000   15.7090000   23.0090000  
C 16.0370000   15.4470000   17.3350000  
C 17.2000000   15.3770000   16.4890000  
C 17.1140000   14.9000000   15.2340000  
C 15.9490000   14.4120000   14.6480000  
C 14.7660000   14.3330000   15.4350000  
C 14.7950000   14.8670000   16.7510000  
C 18.4520000   15.9250000   16.5790000  
C 19.1910000   15.6400000   15.4330000  
N 18.2950000   15.0730000   14.5740000  
O 21.2380000   16.6430000   16.0540000  
C 20.6220000   15.8800000   15.1550000  
O 21.2430000   15.3980000   14.1330000  
O 13.6600000   13.8220000   14.8850000  
O 13.6100000   14.9250000   17.4250000  
H 18.9380000   16.3010000   17.4990000  
H 20.6580000   16.9360000   16.7870000  
H 18.4400000   14.7640000   13.5910000  
H 13.1020000   13.4300000   15.5640000  
H 13.8280000   15.2010000   18.2880000  
H 15.7850000   14.2200000   13.6260000  
