78
100 
C 17.6770000   10.6990000   24.4690000  
C 16.5400000    9.9580000   24.0440000  
C 15.5010000   10.6090000   23.3420000  
C 15.5830000   11.9120000   23.0250000  
C 16.7100000   12.6770000   23.3040000  
C 17.7920000   12.1100000   24.0820000  
C 14.2630000   10.0850000   22.7830000  
C 13.6890000   11.1430000   22.1090000  
N 14.4780000   12.3240000   22.3210000  
O 12.0750000    9.8320000   21.0030000  
C 12.4130000   11.0820000   21.3690000  
O 11.6990000   12.0100000   21.0190000  
O 18.8760000   12.8150000   24.5170000  
O 18.5540000   10.0690000   25.3290000  
H 16.4260000    8.9330000   24.4040000  
H 13.9550000    9.0250000   22.7150000  
H 12.8660000    9.2870000   21.1750000  
H 14.4240000   13.2430000   21.8170000  
H 18.9070000   13.6390000   23.9630000  
H 19.0530000   10.7270000   25.8680000  
C 16.6060000   14.1210000   22.8640000  
C 16.6550000   15.1560000   23.7950000  
C 16.4450000   16.4580000   23.4740000  
C 16.2670000   16.9670000   22.2070000  
C 16.2550000   15.9830000   21.1710000  
C 16.3900000   14.5830000   21.5340000  
C 16.7940000   15.0860000   25.2480000  
C 16.5380000   16.3330000   25.7220000  
N 16.2720000   17.1770000   24.6350000  
O 16.4710000   15.8100000   28.0430000  
C 16.3930000   16.7880000   27.1100000  
O 16.3620000   17.9490000   27.4530000  
O 16.0770000   16.3460000   19.8450000  
O 16.3880000   13.6740000   20.4720000  
H 16.8560000   14.2580000   25.8820000  
H 16.4330000   14.9910000   27.5500000  
H 15.9130000   18.1250000   24.6310000  
H 15.8860000   15.5480000   19.2810000  
H 17.0460000   12.9990000   20.6530000  
C 16.1260000   18.4220000   21.8090000  
C 17.2300000   19.1090000   21.3040000  
C 17.1600000   20.4800000   21.1960000  
C 16.0200000   21.2580000   21.3150000  
C 14.8640000   20.5760000   21.7260000  
C 14.9030000   19.1870000   22.0570000  
C 18.5760000   18.7670000   20.9680000  
C 19.2420000   19.8720000   20.4610000  
N 18.3720000   20.9520000   20.7110000  
O 21.4040000   18.7830000   20.3420000  
C 20.6510000   19.9120000   20.1080000  
O 21.1930000   20.9210000   19.7180000  
O 13.6480000   21.2130000   21.8690000  
O 13.8280000   18.5660000   22.5930000  
H 19.0440000   17.7720000   21.1570000  
H 20.7340000   18.0810000   20.6110000  
H 18.5040000   21.8220000   20.3710000  
H 13.7220000   22.1080000   21.5000000  
H 13.9060000   17.5860000   22.4890000  
C 15.9760000   22.7370000   20.9070000  
C 15.3710000   23.1250000   19.6760000  
C 15.3820000   24.4180000   19.2190000  
C 16.0970000   25.4030000   19.9050000  
C 16.8470000   25.0330000   21.0900000  
C 16.7090000   23.7330000   21.6330000  
C 14.6750000   22.3400000   18.7570000  
C 14.2710000   23.1430000   17.6590000  
N 14.6790000   24.4400000   17.9430000  
O 12.8790000   21.5170000   16.5910000  
C 13.3990000   22.7410000   16.5150000  
O 13.0260000   23.4940000   15.6750000  
O 17.6010000   25.9780000   21.6810000  
O 17.1810000   23.5120000   22.8160000  
H 14.4230000   21.2490000   18.8930000  
H 13.5040000   21.0800000   17.2100000  
H 14.5290000   25.3150000   17.4310000  
H 18.0660000   25.5680000   22.4310000  
H 17.2880000   22.5620000   23.0420000  
H 16.1690000   26.3700000   19.5520000  
