78
100 
C 16.3800000   11.0360000   24.8610000  
C 16.7970000   11.1710000   26.2260000  
C 17.1710000   12.4280000   26.6670000  
C 17.0350000   13.5520000   25.9320000  
C 16.5740000   13.5510000   24.6120000  
C 16.3200000   12.2440000   24.0680000  
C 17.6520000   12.8430000   27.9680000  
C 17.8980000   14.1860000   27.9010000  
N 17.5440000   14.6430000   26.5770000  
O 18.9470000   14.4910000   29.9890000  
C 18.4740000   15.1080000   28.9290000  
O 18.4890000   16.3420000   28.9120000  
O 16.0550000   11.9950000   22.7380000  
O 16.1140000    9.8100000   24.3190000  
H 17.0190000   10.3030000   26.8560000  
H 17.5890000   12.2020000   28.8330000  
H 18.8980000   13.5720000   29.6550000  
H 17.5330000   15.5910000   26.2180000  
H 15.8770000   12.9060000   22.3250000  
H 16.0240000    9.9230000   23.3900000  
C 16.5730000   14.7910000   23.7280000  
C 17.6860000   15.6300000   23.4650000  
C 17.5290000   16.7710000   22.7510000  
C 16.3270000   17.1870000   22.2320000  
C 15.1240000   16.3850000   22.5570000  
C 15.2920000   15.2310000   23.2960000  
C 19.1060000   15.5110000   23.7830000  
C 19.7700000   16.5850000   23.1680000  
N 18.7830000   17.3640000   22.4870000  
O 22.0630000   16.0970000   23.6810000  
C 21.2180000   16.8850000   23.0040000  
O 21.5410000   17.8930000   22.4380000  
O 13.8880000   16.7590000   22.1620000  
O 14.2110000   14.4570000   23.4250000  
H 19.6090000   14.7490000   24.2910000  
H 21.4350000   15.5430000   24.1390000  
H 18.9900000   18.1670000   21.9110000  
H 13.3040000   16.1760000   22.5470000  
H 14.4930000   13.6520000   23.7660000  
C 16.2760000   18.3680000   21.3890000  
C 15.5980000   18.2000000   20.1310000  
C 15.4580000   19.2230000   19.2460000  
C 16.0950000   20.4910000   19.3630000  
C 16.7490000   20.6970000   20.6380000  
C 16.8050000   19.6780000   21.6640000  
C 15.0200000   17.0780000   19.5570000  
C 14.5520000   17.4670000   18.2830000  
N 14.7720000   18.8770000   18.1030000  
O 13.8270000   15.2800000   17.7210000  
C 13.8510000   16.5690000   17.3250000  
O 13.3950000   16.9870000   16.2780000  
O 17.3120000   21.9560000   20.9400000  
O 17.2480000   19.9490000   22.9140000  
H 14.9570000   16.0600000   19.8980000  
H 14.2110000   15.2550000   18.6330000  
H 14.7080000   19.4620000   17.2500000  
H 16.7310000   22.5620000   20.4360000  
H 17.0900000   19.2490000   23.5290000  
C 15.6650000   21.6590000   18.6020000  
C 14.2920000   22.1150000   18.6000000  
C 13.8700000   23.1370000   17.8690000  
C 14.7740000   23.8940000   17.1130000  
C 16.1230000   23.4640000   17.0780000  
C 16.6050000   22.3500000   17.7870000  
C 13.1840000   21.6170000   19.3720000  
C 12.1460000   22.5040000   19.1230000  
N 12.5800000   23.4140000   18.1580000  
O 10.4820000   21.3500000   20.2910000  
C 10.8210000   22.5050000   19.7120000  
O 10.0190000   23.4370000   19.6220000  
O 16.9180000   24.1510000   16.2290000  
O 17.9180000   21.9400000   17.5320000  
H 13.1550000   20.7110000   19.8850000  
H 11.2270000   20.7280000   20.1660000  
H 11.9680000   24.2100000   17.8340000  
H 17.6480000   23.6150000   16.0380000  
H 18.1320000   21.4320000   18.3200000  
H 14.5440000   24.7550000   16.4750000  
