78
100 
C  8.7620000   16.9870000   23.5250000  
C  8.0570000   16.4560000   22.4100000  
C  8.8290000   16.2170000   21.2580000  
C 10.1600000   16.4810000   21.1970000  
C 10.9240000   17.0440000   22.2390000  
C 10.1730000   17.3030000   23.3920000  
C  8.4590000   15.6490000   20.0260000  
C  9.6270000   15.5030000   19.3010000  
N 10.7160000   16.0150000   20.0520000  
O  8.3690000   14.7540000   17.4220000  
C  9.5910000   14.9550000   17.9330000  
O 10.5780000   14.6300000   17.3070000  
O 10.8550000   17.8280000   24.4680000  
O  8.1570000   17.4080000   24.6320000  
H  6.9830000   16.2800000   22.3990000  
H  7.4900000   15.3050000   19.8320000  
H  7.8080000   15.0930000   18.1330000  
H 11.7000000   16.1010000   19.7850000  
H 11.7010000   18.0950000   24.1290000  
H  8.9500000   17.6990000   25.0970000  
C 12.3840000   17.2730000   22.1440000  
C 13.0530000   18.5280000   21.9720000  
C 14.3820000   18.6510000   22.0210000  
C 15.3060000   17.5990000   22.0900000  
C 14.7080000   16.2900000   22.2820000  
C 13.2630000   16.1500000   22.2230000  
C 12.4540000   19.8490000   21.8440000  
C 13.5200000   20.7070000   21.7700000  
N 14.7180000   19.9790000   21.8010000  
O 12.2780000   22.7830000   21.4710000  
C 13.4540000   22.1220000   21.4390000  
O 14.4750000   22.7330000   21.1920000  
O 15.4950000   15.2010000   22.4480000  
O 12.7910000   14.8780000   22.3960000  
H 11.3710000   20.0240000   21.7510000  
H 11.7220000   22.1610000   22.0240000  
H 15.6600000   20.3440000   21.6970000  
H 15.0070000   14.4220000   22.6050000  
H 11.8580000   14.9480000   22.2010000  
C 16.7620000   17.8490000   21.8590000  
C 17.7000000   18.0450000   22.8850000  
C 19.0090000   18.2290000   22.5610000  
C 19.5490000   18.4030000   21.2910000  
C 18.5930000   18.1630000   20.2950000  
C 17.2550000   17.9510000   20.5370000  
C 17.7290000   17.9570000   24.2910000  
C 19.0480000   18.1320000   24.7260000  
N 19.8420000   18.3870000   23.6340000  
O 18.4680000   17.6760000   26.9960000  
C 19.4760000   17.9210000   26.1090000  
O 20.6590000   18.1450000   26.3890000  
O 19.0520000   18.2710000   18.9710000  
O 16.3370000   17.7160000   19.5520000  
H 16.8810000   17.9320000   24.9560000  
H 17.6310000   17.7330000   26.4800000  
H 20.8350000   18.6180000   23.6740000  
H 20.0560000   18.0760000   19.0110000  
H 15.5580000   17.4450000   20.0220000  
C 20.9770000   18.6120000   21.0480000  
C 21.9020000   17.6350000   21.3710000  
C 23.2530000   17.8210000   21.1250000  
C 23.7570000   18.9980000   20.5270000  
C 22.8670000   20.0030000   20.1640000  
C 21.4600000   19.8780000   20.4930000  
C 21.7880000   16.3490000   22.1190000  
C 23.1180000   15.8540000   22.1980000  
N 24.0200000   16.8250000   21.7130000  
O 22.4110000   13.9120000   23.3770000  
C 23.5190000   14.5190000   22.8600000  
O 24.6560000   14.1450000   23.1180000  
O 23.3490000   21.1010000   19.5810000  
O 20.6200000   20.9510000   20.1610000  
H 20.8620000   15.7610000   22.4730000  
H 21.7840000   14.6510000   23.3260000  
H 25.0300000   16.7010000   21.8260000  
H 22.4880000   21.5470000   19.3310000  
H 19.7740000   20.4690000   20.2020000  
H 24.8350000   19.1610000   20.2990000  
