78
100 
C  9.1930000   19.7730000   23.2880000  
C  9.0560000   21.1630000   23.2930000  
C 10.2010000   21.8840000   23.1290000  
C 11.4030000   21.2080000   22.9520000  
C 11.6360000   19.8480000   23.0670000  
C 10.4390000   19.0840000   23.1810000  
C 10.4690000   23.2890000   22.9720000  
C 11.8270000   23.3870000   22.7180000  
N 12.4520000   22.0870000   22.6810000  
O 12.0890000   25.8500000   22.6880000  
C 12.6530000   24.6040000   22.5700000  
O 13.7700000   24.4700000   22.2460000  
O 10.4890000   17.7090000   23.1960000  
O  8.0780000   18.9950000   23.4110000  
H  8.0850000   21.7480000   23.3200000  
H  9.7670000   24.0940000   23.0580000  
H 11.1790000   25.7110000   23.1200000  
H 13.4260000   21.8700000   22.4260000  
H 11.3580000   17.4610000   22.9760000  
H  8.4100000   18.0790000   23.4340000  
C 12.8550000   19.1950000   22.6550000  
C 13.4860000   18.3040000   23.5260000  
C 14.6880000   17.6640000   23.2000000  
C 15.4060000   17.8810000   22.0270000  
C 14.7030000   18.7410000   21.1030000  
C 13.4800000   19.3630000   21.3850000  
C 13.1690000   17.9330000   24.8850000  
C 14.1960000   17.1230000   25.3670000  
N 15.1720000   17.0170000   24.3210000  
O 13.3060000   16.8940000   27.5480000  
C 14.2800000   16.4600000   26.7000000  
O 15.2200000   15.7150000   27.0060000  
O 15.1570000   18.9570000   19.8270000  
O 13.0060000   20.1910000   20.4390000  
H 12.4830000   18.4140000   25.5740000  
H 12.7900000   17.4390000   27.0090000  
H 16.0040000   16.4600000   24.3190000  
H 14.4580000   19.3960000   19.4460000  
H 12.2390000   20.7150000   20.6840000  
C 16.7030000   17.2510000   21.7750000  
C 16.7560000   15.8950000   21.3320000  
C 17.9880000   15.3100000   21.0910000  
C 19.2370000   15.9400000   21.1720000  
C 19.1730000   17.3070000   21.5350000  
C 17.9610000   17.9030000   21.8830000  
C 15.7920000   14.8560000   21.1560000  
C 16.4420000   13.7130000   20.7250000  
N 17.7780000   14.0100000   20.6410000  
O 14.4460000   12.4840000   20.5840000  
C 15.7680000   12.4620000   20.4420000  
O 16.3170000   11.5240000   19.9570000  
O 20.3600000   18.0840000   21.5950000  
O 17.9900000   19.2120000   22.0970000  
H 14.7930000   15.0120000   21.3330000  
H 14.1590000   13.3680000   20.7970000  
H 18.5340000   13.4090000   20.3050000  
H 21.0640000   17.3230000   21.6150000  
H 17.0320000   19.4660000   22.0130000  
C 20.5040000   15.2660000   20.9350000  
C 21.4160000   15.8130000   19.9720000  
C 22.7000000   15.3460000   19.7900000  
C 23.1050000   14.2070000   20.4380000  
C 22.2890000   13.6460000   21.4170000  
C 20.9940000   14.1590000   21.6690000  
C 21.2060000   16.8750000   18.9950000  
C 22.3440000   16.8710000   18.2010000  
N 23.2190000   15.9200000   18.6590000  
O 21.5630000   18.8040000   17.0470000  
C 22.5390000   17.8580000   17.0960000  
O 23.5050000   17.7940000   16.3650000  
O 22.6720000   12.4790000   22.0260000  
O 20.2340000   13.5470000   22.6000000  
H 20.2980000   17.4660000   18.8820000  
H 20.9360000   18.5170000   17.7300000  
H 24.0740000   15.6170000   18.2770000  
H 22.1670000   12.4050000   22.9140000  
H 19.4030000   14.0510000   22.6030000  
H 24.0040000   13.7310000   20.1650000  
