78
100 
C  9.0790000   16.8900000   19.4960000  
C  8.6600000   15.5430000   19.6610000  
C  9.5480000   14.6980000   20.3540000  
C 10.7200000   15.1300000   20.9320000  
C 11.2070000   16.4470000   20.6650000  
C 10.3450000   17.3440000   19.9940000  
C  9.4550000   13.2540000   20.6110000  
C 10.5250000   12.9820000   21.4980000  
N 11.3620000   14.1100000   21.6070000  
O  9.6820000   10.9840000   22.2380000  
C 10.7660000   11.7690000   22.3080000  
O 11.7440000   11.4880000   22.9550000  
O 10.8350000   18.5500000   19.6440000  
O  8.2540000   17.7990000   18.8530000  
H  7.8260000   15.0910000   19.2410000  
H  8.7240000   12.5300000   20.3240000  
H  9.0530000   11.5950000   21.6660000  
H 12.0950000   14.0940000   22.2270000  
H 11.8420000   18.6410000   19.6550000  
H  8.7340000   18.6070000   18.7400000  
C 12.5870000   16.6920000   21.1630000  
C 13.6500000   16.5830000   20.2450000  
C 14.8980000   16.9280000   20.6430000  
C 15.2660000   17.4820000   21.8970000  
C 14.2100000   17.6750000   22.7980000  
C 12.8840000   17.2200000   22.4800000  
C 13.7180000   16.3800000   18.8240000  
C 15.0470000   16.5640000   18.4160000  
N 15.7630000   16.8380000   19.5860000  
O 14.8020000   16.0360000   16.0360000  
C 15.6380000   16.3880000   17.0800000  
O 16.7840000   16.6950000   16.8240000  
O 14.3910000   18.2970000   23.9800000  
O 11.9200000   17.6920000   23.3640000  
H 12.8830000   16.1680000   18.1610000  
H 14.0620000   15.7430000   16.6070000  
H 16.7650000   16.9000000   19.6650000  
H 13.5080000   18.3530000   24.4270000  
H 11.0410000   17.4950000   23.0300000  
C 16.6770000   17.6710000   22.4340000  
C 17.5540000   18.5250000   21.6870000  
C 18.8510000   18.7320000   22.1030000  
C 19.4610000   18.0920000   23.1760000  
C 18.6620000   17.1010000   23.8270000  
C 17.3090000   16.8700000   23.4110000  
C 17.3910000   19.4020000   20.5560000  
C 18.6020000   20.0510000   20.3460000  
N 19.5040000   19.7260000   21.3410000  
O 18.0910000   20.8030000   18.1340000  
C 18.8870000   20.9270000   19.1870000  
O 19.9240000   21.6180000   19.1720000  
O 19.0980000   16.5570000   25.0250000  
O 16.5230000   16.0570000   24.1700000  
H 16.5130000   19.5590000   19.9530000  
H 17.4410000   20.1660000   18.4230000  
H 20.4770000   20.0240000   21.3640000  
H 18.4380000   15.8770000   25.1920000  
H 15.5580000   16.3940000   24.1830000  
C 20.8550000   18.5090000   23.6550000  
C 21.0580000   19.8190000   24.2680000  
C 22.2750000   20.2240000   24.6650000  
C 23.4080000   19.4490000   24.4200000  
C 23.2590000   18.2040000   23.8000000  
C 21.9920000   17.7490000   23.4750000  
C 20.0690000   20.8530000   24.6430000  
C 20.8500000   21.9150000   25.2260000  
N 22.1890000   21.4450000   25.2900000  
O 19.0300000   23.2720000   25.6370000  
C 20.3510000   23.1490000   25.8020000  
O 21.0660000   24.0200000   26.2680000  
O 24.3200000   17.3120000   23.7020000  
O 21.9210000   16.5330000   22.9090000  
H 19.0160000   20.8140000   24.5900000  
H 18.7420000   22.4350000   25.2030000  
H 23.0160000   22.0450000   25.5520000  
H 23.9450000   16.4680000   23.2720000  
H 21.0220000   16.2870000   22.8080000  
H 24.4090000   19.7570000   24.7480000  
