78
100 
C 20.7210000   14.7930000   27.2820000  
C 20.0220000   13.5960000   27.6150000  
C 18.8280000   13.2750000   26.9290000  
C 18.3940000   14.0540000   25.9370000  
C 18.9060000   15.3280000   25.6630000  
C 20.1240000   15.6640000   26.3580000  
C 17.9630000   12.0800000   26.8780000  
C 17.0020000   12.3260000   25.8690000  
N 17.3290000   13.5670000   25.2850000  
O 15.7410000   10.3770000   26.2930000  
C 15.8640000   11.4340000   25.4600000  
O 15.2450000   11.5770000   24.4490000  
O 20.7380000   16.8230000   26.0780000  
O 21.8140000   15.1970000   28.0410000  
H 20.3830000   13.0400000   28.4850000  
H 18.0310000   11.1910000   27.5450000  
H 16.2840000   10.6360000   26.9860000  
H 16.8190000   14.0480000   24.5380000  
H 20.2040000   17.1850000   25.2940000  
H 22.1670000   16.0170000   27.7190000  
C 18.3330000   16.2560000   24.6710000  
C 17.0710000   16.9510000   24.9820000  
C 16.4680000   17.5210000   23.9430000  
C 16.8490000   17.5220000   22.5370000  
C 18.0750000   16.8730000   22.3270000  
C 18.8100000   16.2910000   23.3740000  
C 16.2490000   17.1950000   26.1160000  
C 15.1890000   18.0180000   25.7000000  
N 15.3380000   18.1890000   24.3370000  
O 14.2100000   18.2500000   27.9400000  
C 14.1980000   18.6290000   26.6090000  
O 13.2230000   19.2870000   26.2570000  
O 18.4360000   16.6590000   21.0730000  
O 19.9550000   15.6050000   22.9780000  
H 16.3330000   16.8250000   27.1640000  
H 15.1190000   17.8560000   28.0000000  
H 14.6820000   18.7720000   23.7890000  
H 19.3490000   16.3380000   21.0030000  
H 20.4960000   15.3010000   23.7020000  
C 16.0430000   18.1250000   21.4020000  
C 16.4150000   19.4150000   20.8890000  
C 15.6530000   19.9060000   19.8880000  
C 14.4430000   19.3740000   19.3580000  
C 14.1150000   18.0830000   19.8370000  
C 14.9010000   17.4700000   20.8660000  
C 17.4250000   20.3760000   21.2120000  
C 17.3760000   21.3500000   20.2320000  
N 16.2370000   21.0990000   19.4210000  
O 19.2600000   22.6590000   21.0230000  
C 18.2990000   22.5060000   20.0720000  
O 18.0730000   23.2980000   19.1550000  
O 13.0730000   17.4540000   19.2750000  
O 14.7150000   16.1410000   21.1300000  
H 18.0690000   20.3560000   22.0590000  
H 19.2400000   21.7930000   21.4480000  
H 16.0240000   21.5950000   18.5740000  
H 12.6080000   18.0060000   18.6380000  
H 15.3900000   15.8930000   21.8730000  
C 13.6930000   20.1040000   18.2510000  
C 13.6770000   19.6780000   16.9070000  
C 12.8240000   20.2860000   16.0130000  
C 12.0870000   21.4360000   16.2070000  
C 12.2030000   22.0060000   17.5260000  
C 12.8810000   21.2760000   18.5360000  
C 14.2820000   18.5340000   16.2130000  
C 13.7660000   18.6020000   14.9040000  
N 12.9670000   19.7100000   14.7460000  
O 15.0480000   16.7080000   14.2780000  
C 14.2520000   17.6830000   13.8580000  
O 13.8830000   17.8000000   12.7120000  
O 11.4490000   23.0820000   17.9190000  
O 12.8720000   21.7500000   19.8160000  
H 14.9430000   17.7160000   16.6330000  
H 15.0770000   16.7490000   15.2390000  
H 12.4890000   20.0030000   13.9390000  
H 11.7860000   23.3820000   18.7830000  
H 13.4650000   21.1840000   20.3440000  
H 11.4510000   21.9040000   15.4490000  
