78
100 
C 11.6350000   22.8150000   25.1600000  
C 10.5710000   22.0120000   25.6030000  
C 10.5910000   20.6460000   25.3910000  
C 11.7220000   20.0940000   24.8590000  
C 12.8320000   20.8170000   24.3740000  
C 12.7450000   22.2300000   24.5180000  
C  9.7120000   19.5760000   25.7740000  
C 10.3570000   18.3820000   25.3230000  
N 11.6240000   18.7590000   24.7980000  
O  8.5120000   17.0230000   26.0070000  
C  9.7850000   17.0180000   25.5630000  
O 10.3600000   15.9660000   25.3720000  
O 13.6710000   23.0190000   23.9970000  
O 11.5830000   24.1400000   25.3090000  
H  9.7750000   22.4220000   26.1110000  
H  8.6870000   19.5900000   26.2090000  
H  8.2800000   17.9840000   26.1210000  
H 12.2670000   18.1250000   24.3790000  
H 14.4780000   22.5280000   23.7640000  
H 12.3570000   24.5400000   24.8580000  
C 13.9410000   20.0510000   23.6410000  
C 13.9750000   20.1010000   22.2460000  
C 14.9810000   19.4550000   21.5370000  
C 15.9330000   18.5650000   22.0910000  
C 15.8260000   18.4940000   23.4960000  
C 14.8630000   19.1910000   24.2490000  
C 13.1000000   20.7150000   21.2690000  
C 13.7270000   20.5370000   20.0200000  
N 14.8130000   19.7010000   20.1940000  
O 12.2170000   21.8990000   18.6680000  
C 13.3630000   21.1720000   18.7040000  
O 13.9610000   21.0340000   17.6220000  
O 16.8230000   17.8830000   24.1690000  
O 14.7090000   18.8660000   25.5580000  
H 12.1930000   21.2170000   21.4880000  
H 11.5830000   21.6780000   19.4100000  
H 15.4500000   19.4490000   19.4510000  
H 16.7030000   17.9550000   25.0570000  
H 14.0580000   19.3870000   26.0260000  
C 16.7520000   17.6750000   21.2960000  
C 18.1570000   17.9780000   21.1430000  
C 18.9720000   17.1200000   20.4670000  
C 18.5600000   15.9240000   19.9040000  
C 17.1240000   15.6070000   20.1170000  
C 16.2440000   16.4950000   20.7800000  
C 19.0240000   19.0120000   21.6760000  
C 20.3130000   18.7290000   21.2990000  
N 20.2950000   17.5140000   20.5440000  
O 21.3980000   20.5850000   22.1050000  
C 21.5810000   19.4510000   21.4850000  
O 22.6590000   19.1000000   21.0540000  
O 16.6910000   14.4190000   19.5960000  
O 14.9100000   16.1550000   20.9570000  
H 18.7220000   19.7920000   22.2940000  
H 20.4490000   20.6940000   22.2770000  
H 21.1600000   17.0400000   20.1970000  
H 15.7240000   14.3530000   19.6100000  
H 14.6580000   16.4880000   21.8540000  
C 19.5460000   14.9660000   19.2350000  
C 19.9080000   13.7670000   19.8260000  
C 20.7070000   12.8380000   19.2130000  
C 21.2610000   13.0820000   17.9170000  
C 21.0090000   14.3270000   17.3590000  
C 20.1290000   15.2040000   17.9780000  
C 19.5320000   13.1350000   21.0090000  
C 19.9380000   11.8360000   21.1100000  
N 20.7560000   11.7230000   19.9370000  
O 18.9710000   11.2690000   23.1940000  
C 19.6090000   10.7880000   22.0990000  
O 19.7430000    9.6260000   21.8880000  
O 21.5600000   14.5830000   16.1810000  
O 19.8640000   16.4520000   17.4280000  
H 18.8570000   13.5920000   21.7870000  
H 18.8120000   12.2240000   23.0670000  
H 21.1730000   10.8900000   19.4960000  
H 21.5270000   15.5670000   16.0480000  
H 19.2910000   16.9130000   18.0490000  
H 21.8530000   12.3620000   17.4010000  
