78
100 
C 17.3120000   10.0360000   21.5270000  
C 16.2810000    9.5180000   22.3520000  
C 15.3420000   10.4810000   22.8810000  
C 15.3710000   11.7950000   22.4300000  
C 16.5120000   12.3710000   21.8160000  
C 17.4440000   11.4190000   21.3080000  
C 14.0730000   10.2580000   23.4590000  
C 13.4290000   11.4910000   23.4930000  
N 14.2540000   12.4870000   22.9170000  
O 11.3790000   10.6240000   24.4990000  
C 12.0730000   11.7440000   24.0250000  
O 11.4710000   12.7970000   24.0300000  
O 18.4930000   11.8220000   20.6630000  
O 18.0310000    9.1340000   20.9030000  
H 16.2390000    8.4550000   22.5200000  
H 13.6620000    9.3740000   24.0750000  
H 12.0800000    9.9620000   24.4980000  
H 14.0550000   13.4050000   22.6960000  
H 18.6510000   12.6890000   21.0600000  
H 18.5260000    9.6790000   20.2480000  
C 16.6610000   13.8640000   21.5780000  
C 16.4960000   14.7340000   22.6900000  
C 16.3630000   16.0510000   22.5570000  
C 16.4220000   16.7030000   21.3400000  
C 16.7060000   15.9320000   20.2000000  
C 16.7670000   14.4750000   20.3320000  
C 16.1660000   14.4440000   24.0530000  
C 15.8210000   15.6840000   24.6710000  
N 16.0310000   16.7360000   23.7200000  
O 15.0380000   14.6950000   26.7880000  
C 15.1660000   15.8300000   26.0540000  
O 14.7340000   16.9190000   26.4470000  
O 16.7050000   16.4470000   18.9420000  
O 16.9040000   13.7660000   19.1580000  
H 16.2480000   13.4950000   24.5650000  
H 15.5190000   14.0110000   26.2150000  
H 15.8130000   17.7490000   23.7150000  
H 16.9680000   15.7070000   18.3360000  
H 17.1340000   12.8170000   19.3360000  
C 16.1270000   18.1790000   21.2970000  
C 17.1270000   19.0760000   21.7390000  
C 16.9130000   20.4340000   21.6200000  
C 15.7290000   21.0210000   21.0390000  
C 14.6770000   20.0580000   20.7960000  
C 14.8810000   18.6830000   20.8820000  
C 18.4550000   18.9390000   22.2570000  
C 18.8860000   20.2700000   22.5540000  
N 17.9090000   21.2020000   22.1260000  
O 21.1270000   19.6040000   23.3910000  
C 20.2530000   20.6340000   23.0840000  
O 20.6110000   21.8070000   23.2310000  
O 13.5010000   20.4610000   20.3570000  
O 13.9510000   17.7860000   20.5160000  
H 19.0920000   18.0340000   22.4170000  
H 20.6770000   18.8180000   23.1800000  
H 18.0290000   22.2040000   21.9960000  
H 13.0840000   19.6680000   20.0250000  
H 14.2270000   16.8810000   20.7460000  
C 15.4870000   22.5250000   21.1240000  
C 16.0940000   23.4480000   20.2790000  
C 15.8890000   24.7890000   20.3790000  
C 15.1650000   25.3900000   21.4180000  
C 14.5380000   24.5000000   22.3380000  
C 14.6470000   23.0860000   22.1390000  
C 17.1140000   23.2690000   19.2260000  
C 17.4390000   24.5510000   18.7590000  
N 16.7000000   25.4900000   19.4860000  
O 18.7540000   23.8010000   16.8530000  
C 18.1480000   24.8490000   17.5020000  
O 18.2030000   26.0110000   17.0180000  
O 13.6730000   24.9780000   23.2350000  
O 13.8990000   22.2520000   22.9040000  
H 17.4000000   22.3530000   18.7350000  
H 18.6120000   23.0650000   17.4680000  
H 16.7320000   26.4430000   19.3510000  
H 13.5950000   24.3960000   23.9870000  
H 14.2030000   21.3540000   22.5500000  
H 14.9290000   26.4720000   21.4350000  
