78
100 
C  9.0760000   15.4660000   21.5870000  
C  8.8720000   14.3820000   20.6750000  
C  9.9090000   13.8380000   19.9630000  
C 11.1510000   14.3180000   20.2000000  
C 11.4600000   15.4250000   21.0280000  
C 10.3420000   16.0280000   21.7080000  
C 10.0260000   12.6850000   19.0980000  
C 11.3960000   12.6560000   18.7430000  
N 12.0700000   13.6780000   19.3930000  
O 11.0780000   10.4950000   17.7500000  
C 11.9690000   11.4670000   18.0370000  
O 13.1720000   11.3300000   17.7800000  
O 10.4860000   17.0280000   22.5730000  
O  8.0200000   15.9210000   22.3140000  
H  7.9340000   13.9150000   20.6310000  
H  9.2780000   11.9330000   18.7690000  
H 10.2400000   10.8700000   17.9460000  
H 13.0490000   13.9140000   19.1730000  
H 11.4070000   16.9920000   22.7910000  
H  8.3470000   16.6430000   22.8960000  
C 12.7760000   15.9470000   21.3070000  
C 13.1830000   17.2310000   20.9410000  
C 14.4180000   17.7240000   21.1040000  
C 15.4590000   17.0910000   21.7680000  
C 15.1370000   15.7160000   22.0890000  
C 13.8210000   15.1930000   21.9410000  
C 12.4620000   18.1900000   20.1700000  
C 13.3100000   19.2610000   20.0400000  
N 14.5620000   18.9370000   20.6450000  
O 11.7230000   20.5900000   18.9140000  
C 12.9660000   20.5300000   19.3570000  
O 13.6670000   21.4680000   19.2440000  
O 16.0590000   14.9560000   22.7580000  
O 13.6980000   13.8480000   22.3440000  
H 11.5160000   18.0900000   19.7310000  
H 11.1760000   19.8740000   19.2420000  
H 15.3940000   19.5100000   20.7610000  
H 15.5460000   14.1330000   22.9470000  
H 12.9010000   13.4650000   21.9180000  
C 16.8530000   17.6760000   22.0700000  
C 16.9750000   18.9290000   22.7440000  
C 18.1420000   19.5990000   22.8070000  
C 19.3390000   19.0560000   22.3310000  
C 19.2800000   17.7960000   21.6900000  
C 18.0300000   17.1130000   21.5870000  
C 16.0750000   19.7590000   23.5340000  
C 16.7740000   20.8500000   24.0180000  
N 18.1150000   20.7010000   23.6210000  
O 14.7930000   22.1490000   24.8380000  
C 16.0960000   22.0230000   24.7490000  
O 16.8260000   22.8490000   25.2510000  
O 20.4130000   17.2700000   21.1480000  
O 17.9800000   15.9890000   20.7440000  
H 14.9900000   19.6130000   23.7060000  
H 14.4410000   21.4280000   24.3640000  
H 18.9680000   21.1970000   23.9620000  
H 20.8580000   18.0230000   20.9220000  
H 17.1150000   15.5370000   20.7560000  
C 20.6470000   19.8330000   22.4600000  
C 21.7520000   19.4400000   23.2650000  
C 22.9460000   20.1920000   23.3620000  
C 23.0830000   21.4540000   22.7320000  
C 22.0150000   21.9080000   21.9340000  
C 20.8130000   21.1120000   21.7890000  
C 21.9900000   18.2640000   24.0800000  
C 23.2780000   18.3380000   24.5560000  
N 23.8710000   19.5280000   24.1400000  
O 23.3110000   16.3090000   25.8080000  
C 24.0210000   17.3960000   25.3980000  
O 25.2200000   17.6360000   25.7170000  
O 22.1270000   23.1310000   21.4360000  
O 19.8230000   21.6140000   20.9750000  
H 21.1780000   17.4530000   24.2270000  
H 22.4080000   16.4110000   25.5650000  
H 24.8680000   19.7040000   24.1620000  
H 21.3860000   23.2850000   20.8310000  
H 19.1930000   20.8570000   20.8020000  
H 24.0310000   22.0020000   22.9750000  
