78
100 
C 14.5280000   21.2160000   28.1190000  
C 15.6750000   21.3390000   28.9170000  
C 16.8620000   20.8660000   28.4350000  
C 16.9130000   20.1970000   27.2310000  
C 15.8060000   20.0460000   26.3480000  
C 14.5900000   20.6430000   26.8220000  
C 18.1730000   20.7370000   28.9960000  
C 18.9390000   20.0180000   28.0480000  
N 18.1780000   19.7280000   26.9300000  
O 20.9860000   20.0710000   29.3500000  
C 20.3170000   19.6050000   28.2420000  
O 20.8790000   19.0010000   27.3720000  
O 13.4240000   20.5230000   26.1270000  
O 13.3370000   21.6580000   28.5260000  
H 15.5490000   21.7890000   29.8930000  
H 18.5690000   21.1620000   29.9110000  
H 20.2530000   20.4370000   29.9990000  
H 18.5450000   19.3170000   26.1280000  
H 13.4350000   19.8450000   25.4950000  
H 12.7560000   21.4460000   27.7990000  
C 15.9300000   19.4300000   25.0560000  
C 15.4500000   18.0920000   24.9080000  
C 15.5330000   17.4680000   23.7240000  
C 16.1190000   18.0010000   22.4910000  
C 16.5960000   19.3590000   22.6230000  
C 16.5540000   20.0180000   23.9080000  
C 14.7740000   17.1650000   25.8560000  
C 14.5210000   16.0260000   25.1160000  
N 14.9690000   16.2390000   23.8300000  
O 13.3080000   15.0300000   26.9100000  
C 13.7550000   14.8840000   25.6860000  
O 13.5100000   13.8990000   24.9760000  
O 17.2640000   19.9070000   21.4630000  
O 17.0510000   21.2830000   24.0090000  
H 14.4070000   17.3870000   26.8010000  
H 13.6750000   15.8720000   27.2770000  
H 14.9670000   15.4910000   23.0970000  
H 17.8010000   20.7670000   21.6440000  
H 16.6070000   21.6940000   24.8390000  
C 16.2730000   17.1670000   21.2400000  
C 15.1500000   16.7870000   20.5780000  
C 15.2550000   16.2860000   19.3080000  
C 16.4220000   16.0300000   18.5330000  
C 17.5960000   16.3900000   19.2020000  
C 17.5230000   16.9920000   20.5040000  
C 13.7230000   16.8880000   20.8770000  
C 13.0570000   16.2930000   19.7570000  
N 14.0240000   15.9690000   18.8050000  
O 10.8400000   17.0410000   20.3580000  
C 11.6020000   16.2880000   19.4670000  
O 11.1070000   15.6710000   18.5200000  
O 18.8110000   16.3080000   18.5710000  
O 18.7150000   17.3370000   21.0750000  
H 13.2690000   17.3770000   21.7210000  
H 11.4570000   17.5000000   20.9730000  
H 13.7250000   15.5590000   17.9010000  
H 19.3730000   17.0660000   18.8140000  
H 18.6220000   18.1950000   21.5200000  
C 16.4160000   15.4830000   17.1300000  
C 16.8790000   16.2570000   16.1090000  
C 16.7470000   15.8050000   14.8480000  
C 16.4790000   14.4980000   14.5310000  
C 15.9750000   13.7010000   15.5990000  
C 15.9570000   14.1790000   16.9190000  
C 17.5090000   17.5760000   16.0450000  
C 17.8050000   17.7470000   14.6940000  
N 17.2600000   16.7520000   13.9690000  
O 18.9760000   19.7140000   15.2120000  
C 18.6630000   18.8610000   14.2140000  
O 18.9510000   19.0800000   13.0880000  
O 15.6720000   12.3850000   15.3280000  
O 15.5440000   13.3470000   17.9500000  
H 17.8800000   18.0250000   16.9380000  
H 18.6010000   19.3270000   16.0330000  
H 17.3970000   16.6250000   12.9640000  
H 15.4340000   11.9600000   16.1320000  
H 15.6170000   13.8600000   18.7790000  
H 16.4650000   14.0450000   13.5020000  
