78
100 
C  9.3990000   19.3470000   25.1180000  
C  8.9140000   20.3720000   24.3890000  
C  9.7080000   20.9480000   23.3910000  
C 10.8850000   20.3930000   23.1330000  
C 11.4150000   19.2330000   23.7450000  
C 10.6380000   18.7110000   24.8430000  
C  9.4320000   21.8400000   22.3220000  
C 10.4160000   21.7160000   21.4130000  
N 11.2820000   20.7280000   21.8580000  
O  9.5440000   23.1720000   19.8000000  
C 10.5360000   22.2850000   20.0750000  
O 11.3870000   21.9590000   19.2700000  
O 11.0710000   17.5970000   25.5030000  
O  8.6800000   18.9160000   26.2210000  
H  7.8820000   20.6390000   24.6480000  
H  8.5130000   22.4140000   22.2570000  
H  9.0770000   23.2630000   20.6680000  
H 12.0950000   20.3180000   21.3290000  
H 12.0020000   17.3890000   25.2910000  
H  9.2910000   18.3640000   26.7380000  
C 12.6850000   18.6580000   23.3260000  
C 13.8640000   19.4650000   23.2770000  
C 15.0410000   18.9710000   22.8680000  
C 15.2400000   17.7290000   22.2450000  
C 14.1470000   16.8520000   22.3490000  
C 12.8790000   17.2800000   22.8660000  
C 14.1220000   20.8550000   23.4720000  
C 15.4370000   21.1310000   23.1710000  
N 16.0690000   19.8730000   22.8770000  
O 15.3040000   23.4040000   23.6530000  
C 16.1390000   22.4010000   23.3540000  
O 17.3890000   22.5460000   23.3280000  
O 14.2410000   15.5910000   21.8510000  
O 11.8010000   16.4460000   22.8150000  
H 13.4740000   21.6270000   23.9090000  
H 14.4960000   22.9630000   23.8070000  
H 16.9970000   19.6440000   22.7290000  
H 13.3600000   15.2370000   21.6490000  
H 10.9590000   16.9350000   23.1360000  
C 16.5220000   17.2840000   21.5210000  
C 17.5340000   16.6140000   22.2180000  
C 18.7300000   16.3380000   21.7080000  
C 19.1330000   16.6000000   20.3470000  
C 18.1350000   17.2370000   19.5940000  
C 16.9420000   17.6670000   20.1920000  
C 17.5130000   16.0450000   23.5520000  
C 18.7860000   15.5310000   23.7600000  
N 19.5660000   15.6510000   22.6000000  
O 18.5400000   15.0090000   26.0560000  
C 19.2950000   14.9260000   25.0040000  
O 20.4140000   14.4310000   25.0500000  
O 18.2340000   17.3730000   18.2480000  
O 16.1830000   18.5220000   19.5370000  
H 16.6890000   16.0880000   24.1490000  
H 17.7180000   15.4580000   25.8580000  
H 20.5050000   15.3500000   22.4220000  
H 17.3380000   17.5270000   17.9290000  
H 15.3100000   18.3940000   19.7990000  
C 20.3960000   16.1500000   19.6770000  
C 20.8190000   14.7940000   19.7160000  
C 22.0300000   14.4840000   19.1680000  
C 22.9250000   15.3790000   18.6250000  
C 22.4840000   16.7180000   18.5020000  
C 21.2490000   17.0890000   19.0700000  
C 20.1460000   13.5360000   19.9860000  
C 21.0660000   12.5230000   19.7590000  
N 22.2220000   13.1040000   19.2270000  
O 19.6690000   10.7420000   20.3840000  
C 20.8580000   11.0770000   19.9500000  
O 21.6850000   10.2090000   19.6960000  
O 23.3010000   17.6240000   17.8980000  
O 20.9220000   18.4660000   19.0610000  
H 19.1920000   13.4750000   20.5190000  
H 19.1820000   11.5620000   20.5660000  
H 23.0350000   12.6260000   18.7930000  
H 23.0770000   18.4920000   18.2260000  
H 19.9310000   18.4650000   19.2040000  
H 23.9170000   15.1110000   18.1540000  
