78
100 
C 15.9140000   10.7280000   20.0810000  
C 14.9700000    9.9230000   20.7000000  
C 14.0850000   10.5450000   21.6280000  
C 14.0330000   11.8600000   21.7290000  
C 14.8950000   12.7370000   21.0360000  
C 15.8050000   12.1120000   20.1430000  
C 12.9520000    9.9880000   22.4280000  
C 12.2340000   11.1420000   22.8460000  
N 12.9010000   12.2830000   22.3850000  
O 10.3430000    9.8400000   23.5590000  
C 10.8820000   11.0450000   23.4470000  
O 10.2440000   11.9920000   23.7510000  
O 16.7080000   12.8580000   19.4790000  
O 16.8280000   10.1950000   19.2720000  
H 14.9970000    8.8280000   20.6610000  
H 12.7620000    8.9170000   22.7050000  
H 10.8530000    9.2710000   23.0260000  
H 12.6670000   13.2860000   22.4350000  
H 16.4480000   13.7350000   19.7050000  
H 17.3350000   10.9840000   18.8920000  
C 14.9690000   14.2480000   21.2650000  
C 16.0490000   14.7210000   22.0650000  
C 16.1330000   16.0490000   22.3100000  
C 15.3960000   17.0220000   21.6370000  
C 14.3670000   16.5870000   20.7660000  
C 14.1840000   15.2340000   20.5760000  
C 16.9420000   14.0530000   22.9280000  
C 17.7650000   15.0740000   23.4980000  
N 17.2420000   16.3170000   23.1000000  
O 19.1500000   13.4290000   24.6800000  
C 18.8900000   14.7730000   24.4650000  
O 19.5860000   15.6390000   25.0070000  
O 13.6200000   17.4720000   20.0160000  
O 13.2270000   14.7310000   19.7590000  
H 17.0520000   12.9630000   23.0940000  
H 18.4220000   12.7760000   24.3500000  
H 17.7060000   17.1830000   23.2820000  
H 13.1160000   16.9260000   19.4150000  
H 13.2260000   13.7520000   19.7230000  
C 15.5270000   18.5130000   21.9450000  
C 16.7540000   19.0620000   21.6250000  
C 16.9700000   20.3990000   21.8890000  
C 16.0360000   21.3420000   22.3700000  
C 14.7020000   20.8000000   22.5180000  
C 14.5360000   19.4220000   22.3450000  
C 17.9760000   18.5150000   21.1420000  
C 18.9330000   19.5250000   21.3960000  
N 18.3240000   20.6410000   21.9030000  
O 20.8000000   18.2870000   20.6950000  
C 20.3470000   19.4690000   21.0550000  
O 21.0830000   20.4360000   21.0340000  
O 13.7490000   21.4860000   23.1440000  
O 13.3000000   18.8920000   22.6180000  
H 18.1710000   17.5410000   20.6490000  
H 20.0180000   17.7700000   20.8260000  
H 18.7860000   21.5550000   22.1120000  
H 13.0010000   20.9010000   23.3880000  
H 13.3950000   17.9950000   22.4270000  
C 16.3950000   22.8230000   22.6130000  
C 17.0960000   23.5520000   21.6440000  
C 17.3840000   24.9150000   21.8470000  
C 17.1240000   25.5840000   23.0100000  
C 16.4200000   24.9920000   24.0080000  
C 16.0570000   23.6250000   23.7990000  
C 17.5990000   23.1260000   20.3520000  
C 18.3030000   24.2540000   19.8530000  
N 18.1520000   25.3270000   20.7580000  
O 18.8890000   23.3800000   17.7070000  
C 19.0090000   24.4150000   18.5690000  
O 19.6210000   25.3800000   18.2660000  
O 16.0230000   25.6710000   25.0550000  
O 15.3690000   23.0210000   24.7840000  
H 17.3580000   22.2080000   19.8050000  
H 18.3580000   22.7590000   18.2310000  
H 18.4180000   26.2500000   20.5240000  
H 15.6750000   24.9890000   25.6460000  
H 15.1730000   22.0820000   24.4230000  
H 17.4980000   26.5930000   23.1520000  
