78
100 
C 13.7740000   20.7980000   28.2570000  
C 12.5710000   21.3950000   27.9130000  
C 11.9050000   20.8210000   26.8010000  
C 12.5000000   19.8790000   26.0520000  
C 13.8580000   19.4450000   26.2190000  
C 14.5080000   19.9690000   27.3340000  
C 10.6720000   21.1460000   26.1540000  
C 10.6090000   20.2670000   25.0730000  
N 11.7510000   19.4480000   25.0130000  
O  8.5880000   21.2270000   24.3080000  
C  9.5160000   20.2620000   24.0570000  
O  9.3960000   19.5300000   23.0460000  
O 15.7840000   19.5360000   27.6390000  
O 14.3770000   21.0930000   29.4120000  
H 12.0400000   22.1000000   28.5480000  
H  9.8910000   21.8440000   26.3830000  
H  8.9910000   21.6760000   25.0560000  
H 11.9950000   18.7850000   24.2980000  
H 16.2150000   19.1780000   26.8180000  
H 15.3450000   21.1760000   29.2030000  
C 14.5030000   18.7010000   25.0540000  
C 14.5730000   19.2980000   23.7920000  
C 15.1450000   18.6790000   22.6990000  
C 15.6320000   17.3860000   22.7350000  
C 15.5740000   16.6650000   23.9870000  
C 15.0480000   17.3530000   25.1130000  
C 14.1610000   20.5890000   23.2510000  
C 14.3900000   20.6690000   21.9200000  
N 14.9940000   19.4300000   21.5480000  
O 13.3920000   22.7680000   21.6560000  
C 14.0580000   21.7530000   21.0470000  
O 14.2070000   21.6800000   19.8580000  
O 16.2190000   15.5160000   24.2150000  
O 15.1760000   16.7530000   26.3460000  
H 13.6440000   21.4260000   23.7340000  
H 13.2690000   22.5180000   22.5380000  
H 15.3590000   19.1600000   20.6080000  
H 16.0120000   15.2950000   25.1420000  
H 14.6250000   17.2070000   27.0990000  
C 16.1690000   16.7770000   21.5450000  
C 17.4260000   17.1570000   21.0340000  
C 18.0220000   16.4620000   19.9740000  
C 17.3310000   15.6080000   19.0950000  
C 16.0560000   15.1690000   19.6260000  
C 15.4830000   15.7930000   20.8020000  
C 18.3470000   18.3190000   21.3280000  
C 19.4640000   18.1870000   20.4490000  
N 19.1670000   17.1520000   19.5910000  
O 20.6640000   20.0570000   21.3570000  
C 20.6860000   19.0240000   20.4870000  
O 21.7040000   18.8480000   19.8210000  
O 15.4470000   14.1970000   18.9150000  
O 14.2310000   15.3810000   21.1460000  
H 18.1660000   19.0260000   22.1340000  
H 19.9760000   19.8990000   21.9970000  
H 19.7420000   16.8620000   18.8270000  
H 16.0450000   13.8340000   18.2440000  
H 13.9430000   15.7710000   22.0430000  
C 18.0110000   15.1200000   17.9320000  
C 19.2590000   14.4470000   18.0770000  
C 19.8920000   13.9680000   16.9480000  
C 19.2730000   13.9830000   15.6650000  
C 18.0850000   14.6580000   15.5610000  
C 17.4780000   15.2340000   16.6610000  
C 20.0340000   14.2290000   19.2520000  
C 21.1290000   13.5300000   18.8110000  
N 21.0760000   13.3580000   17.3620000  
O 22.0490000   13.4190000   20.9130000  
C 22.2840000   13.2510000   19.6420000  
O 23.3620000   12.8800000   19.2220000  
O 17.4280000   14.7180000   14.3330000  
O 16.3560000   16.0030000   16.5150000  
H 19.6940000   14.3340000   20.3100000  
H 21.1990000   13.8120000   21.0290000  
H 21.8270000   12.9540000   16.7710000  
H 16.4630000   14.9070000   14.4830000  
H 15.9790000   16.1680000   17.4030000  
H 19.8260000   13.6030000   14.7530000  
