78
100 
C  8.5640000   18.3510000   20.9530000  
C  8.1350000   17.0810000   20.4100000  
C  9.1010000   16.0770000   20.2700000  
C 10.3640000   16.2720000   20.6790000  
C 10.8380000   17.4700000   21.3010000  
C  9.8590000   18.5320000   21.4920000  
C  8.9920000   14.6680000   19.9420000  
C 10.2690000   14.0950000   20.1190000  
N 11.0910000   15.1040000   20.6520000  
O  9.7370000   11.9230000   19.1980000  
C 10.6790000   12.7280000   19.7360000  
O 11.8520000   12.2880000   19.8240000  
O 10.2120000   19.7650000   22.0640000  
O  7.7110000   19.3900000   21.0690000  
H  7.1780000   17.0640000   20.0460000  
H  8.0950000   14.0830000   19.6190000  
H  8.9890000   12.5240000   19.1820000  
H 12.1060000   15.0160000   20.8630000  
H 11.1530000   19.7660000   21.7980000  
H  8.2700000   20.1820000   21.3220000  
C 12.2870000   17.6560000   21.6110000  
C 13.2690000   17.2280000   20.6380000  
C 14.5830000   17.1360000   21.0270000  
C 15.1070000   17.7260000   22.1870000  
C 14.1260000   18.1570000   23.1340000  
C 12.7650000   18.0980000   22.8660000  
C 13.2350000   16.7650000   19.2610000  
C 14.5340000   16.3590000   18.9400000  
N 15.3800000   16.5790000   20.0690000  
O 13.8420000   15.6900000   16.6730000  
C 14.8870000   15.8280000   17.5620000  
O 16.0190000   15.4410000   17.2230000  
O 14.4340000   18.5230000   24.3800000  
O 11.8640000   18.4760000   23.9630000  
H 12.3750000   16.6930000   18.5270000  
H 13.0790000   16.1020000   17.0420000  
H 16.3490000   16.3730000   20.0880000  
H 13.6390000   18.6710000   24.9110000  
H 10.9560000   18.3870000   23.6510000  
C 16.6080000   17.6990000   22.4860000  
C 17.3580000   18.9040000   22.3700000  
C 18.7360000   18.8510000   22.2630000  
C 19.4660000   17.7270000   22.5400000  
C 18.7270000   16.5320000   22.6950000  
C 17.3620000   16.5430000   22.7360000  
C 16.9730000   20.2350000   22.2010000  
C 18.1740000   21.0490000   22.1750000  
N 19.2380000   20.1310000   22.3640000  
O 17.1330000   23.1920000   22.0870000  
C 18.3280000   22.5080000   22.0680000  
O 19.4220000   23.0400000   22.0400000  
O 19.3560000   15.3480000   22.8990000  
O 16.7690000   15.3110000   22.7880000  
H 15.9750000   20.6200000   22.2490000  
H 16.4600000   22.4960000   22.1390000  
H 20.2300000   20.3080000   22.4000000  
H 18.7570000   14.6340000   22.9090000  
H 15.7720000   15.4050000   22.8610000  
C 21.0160000   17.7840000   22.5270000  
C 21.7450000   18.4160000   23.5480000  
C 23.1310000   18.2800000   23.5350000  
C 23.8200000   17.5700000   22.5460000  
C 23.0950000   16.9430000   21.5390000  
C 21.6890000   17.0510000   21.5820000  
C 21.4190000   19.1590000   24.7280000  
C 22.6450000   19.6240000   25.2550000  
N 23.6730000   19.0540000   24.5430000  
O 21.7260000   21.0140000   26.9770000  
C 22.8510000   20.5440000   26.4410000  
O 23.9320000   20.8240000   26.9270000  
O 23.7710000   16.1420000   20.6560000  
O 20.9330000   16.4370000   20.5990000  
H 20.5140000   19.2870000   25.2550000  
H 21.0070000   20.8380000   26.3500000  
H 24.6730000   19.3170000   24.6500000  
H 23.1610000   15.8420000   19.9300000  
H 20.0240000   16.6480000   20.6550000  
H 24.9310000   17.5080000   22.5730000  
