78
100 
C  9.1320000   15.4820000   22.4200000  
C  8.2310000   15.9590000   21.4660000  
C  8.7610000   16.7700000   20.4480000  
C 10.0680000   17.0810000   20.3340000  
C 11.0290000   16.6170000   21.2610000  
C 10.5610000   15.8490000   22.3740000  
C  8.1830000   17.5680000   19.3580000  
C  9.2230000   18.1870000   18.6410000  
N 10.4230000   17.7830000   19.1940000  
O  7.9210000   19.2030000   16.9940000  
C  9.1700000   19.0050000   17.4400000  
O 10.1240000   19.4000000   16.7740000  
O 11.4170000   15.4040000   23.3770000  
O  8.6500000   14.7950000   23.4890000  
H  7.1460000   15.6520000   21.4420000  
H  7.1290000   17.5880000   19.0590000  
H  7.2960000   18.7900000   17.6550000  
H 11.3780000   17.8400000   18.8500000  
H 12.2180000   15.9480000   23.3540000  
H  9.3540000   14.6310000   24.1210000  
C 12.4830000   16.9300000   21.1720000  
C 13.0930000   17.9050000   22.0240000  
C 14.4500000   18.1300000   22.0760000  
C 15.3590000   17.5270000   21.2130000  
C 14.7630000   16.5010000   20.3370000  
C 13.4360000   16.1630000   20.3390000  
C 12.5290000   18.8760000   22.8980000  
C 13.6100000   19.6590000   23.4540000  
N 14.7900000   19.1870000   22.8330000  
O 12.3300000   21.3100000   24.5660000  
C 13.5700000   20.8740000   24.2700000  
O 14.5840000   21.4090000   24.7050000  
O 15.5450000   15.7270000   19.5100000  
O 12.9420000   15.1970000   19.4640000  
H 11.5240000   19.0100000   23.3050000  
H 11.7300000   20.5660000   24.3040000  
H 15.6460000   19.6650000   22.7830000  
H 15.0070000   14.9800000   19.1070000  
H 11.9900000   15.1390000   19.6600000  
C 16.8760000   17.6900000   21.3480000  
C 17.5940000   17.6240000   22.5880000  
C 18.9490000   17.8260000   22.6400000  
C 19.7410000   18.2490000   21.5850000  
C 19.0390000   18.4110000   20.3710000  
C 17.6560000   18.0280000   20.1890000  
C 17.1990000   17.3170000   23.9380000  
C 18.3620000   17.3890000   24.7430000  
N 19.4760000   17.6860000   23.9200000  
O 17.1530000   16.9600000   26.8070000  
C 18.3390000   17.1670000   26.2250000  
O 19.3190000   17.1950000   26.9540000  
O 19.6100000   19.0360000   19.3460000  
O 16.9480000   18.2380000   19.0430000  
H 16.1680000   17.0480000   24.3380000  
H 16.4890000   16.7900000   26.1190000  
H 20.4710000   17.6500000   24.1560000  
H 20.5520000   19.3510000   19.5380000  
H 16.2020000   17.6590000   19.2460000  
C 21.1880000   18.6130000   21.8120000  
C 22.2320000   17.5940000   21.7790000  
C 23.5110000   17.8930000   22.2580000  
C 23.9110000   19.1710000   22.5370000  
C 22.9360000   20.1950000   22.4560000  
C 21.5840000   19.9000000   22.0860000  
C 22.0860000   16.1700000   21.7150000  
C 23.3140000   15.6240000   22.0630000  
N 24.2180000   16.7480000   22.3100000  
O 22.7540000   13.3330000   21.8710000  
C 23.7280000   14.2410000   22.0150000  
O 24.8480000   13.9420000   22.3430000  
O 23.3310000   21.5150000   22.6100000  
O 20.6560000   20.8720000   22.0200000  
H 21.1860000   15.6480000   21.4000000  
H 21.9170000   13.7420000   21.7520000  
H 25.2050000   16.5620000   22.4570000  
H 22.4760000   21.9850000   22.5990000  
H 19.7270000   20.4530000   21.9540000  
H 24.9840000   19.4390000   22.8010000  
