78
100 
C 10.8530000   12.5630000   21.3160000  
C 10.3640000   12.4220000   20.0420000  
C 10.8390000   13.3320000   19.0520000  
C 11.7810000   14.2380000   19.3350000  
C 12.4050000   14.3400000   20.6340000  
C 11.9240000   13.4400000   21.5830000  
C 10.4340000   13.5330000   17.6720000  
C 11.2150000   14.5730000   17.2230000  
N 12.1440000   14.8950000   18.2080000  
O 10.0910000   14.9010000   15.1920000  
C 11.0620000   15.4040000   15.9920000  
O 11.6740000   16.4680000   15.6890000  
O 12.4290000   13.4300000   22.8400000  
O 10.3150000   11.7770000   22.2720000  
H  9.5660000   11.7010000   19.7450000  
H  9.5850000   12.9980000   17.1530000  
H  9.5640000   14.2780000   15.7540000  
H 12.8420000   15.6380000   18.0510000  
H 13.1870000   14.0580000   22.9470000  
H 10.6140000   12.0690000   23.1310000  
C 13.5190000   15.2950000   20.8790000  
C 13.2770000   16.2470000   21.8640000  
C 14.2880000   17.1230000   22.2290000  
C 15.5640000   17.1420000   21.7160000  
C 15.8480000   16.0820000   20.7700000  
C 14.8200000   15.1530000   20.4290000  
C 12.0600000   16.7330000   22.4420000  
C 12.4640000   17.7080000   23.3270000  
N 13.8170000   18.0310000   23.1220000  
O 10.3740000   17.9960000   24.4380000  
C 11.6980000   18.3850000   24.3950000  
O 12.1290000   19.2910000   25.1010000  
O 17.1210000   15.9780000   20.2270000  
O 15.0620000   14.0500000   19.6320000  
H 11.0640000   16.3180000   22.3260000  
H 10.2240000   17.2800000   23.7870000  
H 14.4250000   18.6980000   23.6470000  
H 17.1620000   15.1860000   19.6860000  
H 14.1890000   13.6500000   19.5730000  
C 16.6210000   18.1200000   22.1340000  
C 17.8270000   17.6720000   22.7010000  
C 18.7500000   18.5310000   23.1540000  
C 18.5310000   19.9660000   23.2330000  
C 17.4000000   20.4350000   22.5530000  
C 16.4090000   19.5050000   22.0000000  
C 18.2860000   16.3430000   23.0120000  
C 19.4720000   16.4850000   23.6890000  
N 19.7520000   17.8430000   23.8280000  
O 20.0640000   14.1600000   23.7870000  
C 20.4010000   15.4130000   24.1130000  
O 21.4450000   15.6410000   24.7600000  
O 17.2060000   21.7640000   22.4200000  
O 15.2030000   20.0290000   21.5850000  
H 17.8750000   15.4240000   22.5920000  
H 19.1820000   14.1490000   23.3650000  
H 20.5890000   18.2390000   24.1520000  
H 18.0110000   22.2870000   22.6390000  
H 14.6120000   19.3220000   21.2820000  
C 19.6120000   20.8540000   23.8570000  
C 20.4680000   21.5460000   22.9640000  
C 21.5820000   22.2620000   23.3700000  
C 21.9100000   22.3510000   24.7190000  
C 21.1760000   21.5840000   25.6410000  
C 20.0640000   20.8470000   25.1820000  
C 20.4880000   21.7180000   21.4760000  
C 21.5750000   22.4370000   21.1430000  
N 22.2940000   22.7860000   22.3420000  
O 21.0600000   22.4660000   18.7750000  
C 21.9120000   22.8790000   19.7530000  
O 22.8080000   23.5990000   19.4510000  
O 21.5750000   21.5510000   26.9340000  
O 19.4400000   20.0200000   26.0970000  
H 19.6710000   21.2510000   20.8870000  
H 20.4480000   21.9560000   19.2890000  
H 23.2770000   22.9380000   22.4150000  
H 20.8160000   21.2440000   27.4360000  
H 18.8950000   19.3490000   25.6740000  
H 22.7220000   22.9440000   25.1760000  
