78
100 
C 16.0640000   20.3220000   28.6320000  
C 17.0420000   19.7650000   29.4490000  
C 17.9470000   18.8650000   28.9050000  
C 17.8600000   18.4760000   27.6170000  
C 16.8320000   18.9420000   26.7340000  
C 15.8850000   19.8750000   27.2820000  
C 19.1170000   18.2180000   29.4870000  
C 19.6390000   17.3870000   28.4900000  
N 18.8410000   17.5140000   27.3160000  
O 21.5320000   16.7020000   29.6950000  
C 20.8780000   16.5860000   28.5920000  
O 21.1810000   15.8510000   27.6600000  
O 14.8280000   20.3230000   26.5130000  
O 15.1650000   21.1860000   29.1030000  
H 17.2590000   20.1320000   30.4150000  
H 19.5840000   18.4920000   30.4280000  
H 20.9420000   17.3290000   30.2190000  
H 18.9090000   17.0140000   26.4340000  
H 14.7920000   19.7240000   25.7330000  
H 14.8580000   21.7220000   28.3930000  
C 16.7970000   18.5810000   25.3430000  
C 15.6820000   17.9790000   24.7550000  
C 15.5730000   17.6350000   23.4340000  
C 16.5870000   17.8730000   22.5670000  
C 17.7960000   18.4900000   23.1300000  
C 17.9130000   18.8800000   24.4760000  
C 14.4980000   17.3880000   25.4380000  
C 13.7580000   16.8460000   24.3840000  
N 14.3150000   17.0410000   23.1230000  
O 12.0030000   15.8770000   25.7720000  
C 12.4590000   16.1130000   24.5110000  
O 11.8500000   15.7510000   23.5610000  
O 18.8320000   18.7050000   22.2270000  
O 19.0100000   19.5850000   24.9650000  
H 14.5000000   17.2760000   26.5210000  
H 12.6450000   16.2460000   26.3930000  
H 14.0280000   16.6760000   22.2310000  
H 19.5060000   19.1650000   22.7580000  
H 18.8400000   19.5890000   25.9100000  
C 16.4600000   17.4360000   21.1680000  
C 15.4520000   18.0470000   20.3770000  
C 15.1590000   17.5850000   19.1190000  
C 15.7800000   16.4670000   18.4990000  
C 16.7720000   15.8280000   19.3320000  
C 17.1500000   16.3520000   20.5750000  
C 14.5920000   19.2170000   20.5050000  
C 13.7840000   19.3660000   19.3460000  
N 14.2210000   18.3350000   18.4890000  
O 12.6200000   21.1840000   20.0820000  
C 12.7090000   20.3390000   19.1200000  
O 11.9530000   20.2730000   18.1600000  
O 17.4940000   14.7780000   18.8290000  
O 18.1950000   15.7760000   21.2420000  
H 14.5750000   19.7970000   21.4260000  
H 13.3720000   20.9680000   20.7120000  
H 13.7950000   18.0080000   17.5750000  
H 18.3240000   14.9640000   18.3980000  
H 18.3330000   16.1790000   22.0820000  
C 15.4100000   15.9880000   17.1890000  
C 15.6600000   16.7480000   16.0510000  
C 15.3950000   16.2780000   14.7850000  
C 14.5780000   15.1300000   14.5600000  
C 14.3550000   14.3000000   15.6820000  
C 14.7460000   14.6850000   17.0040000  
C 16.4090000   17.9880000   15.9030000  
C 16.5610000   18.1690000   14.5130000  
N 15.8250000   17.1500000   13.8580000  
O 18.3420000   19.7150000   14.7160000  
C 17.4910000   19.1490000   13.8590000  
O 17.4800000   19.3710000   12.6550000  
O 13.7110000   13.1160000   15.5260000  
O 14.4980000   13.9490000   18.1540000  
H 16.9380000   18.5900000   16.5890000  
H 18.1380000   19.2660000   15.5310000  
H 15.7560000   16.9710000   12.8650000  
H 13.8140000   12.7080000   16.3840000  
H 14.6200000   14.5190000   18.9290000  
H 14.3170000   14.8200000   13.4870000  
