78
100 
C  9.0980000   18.3600000   23.7600000  
C  8.3950000   19.3080000   23.0720000  
C  9.0760000   20.0800000   22.1600000  
C 10.4080000   19.8450000   21.8690000  
C 11.2050000   18.9170000   22.5270000  
C 10.5170000   18.0820000   23.5410000  
C  8.6370000   21.0600000   21.1730000  
C  9.7320000   21.4610000   20.4290000  
N 10.8050000   20.6890000   20.8280000  
O  8.6300000   23.3160000   19.3710000  
C  9.7500000   22.6260000   19.4850000  
O 10.7290000   22.9580000   18.8140000  
O 11.1650000   17.0720000   24.2390000  
O  8.4310000   17.6060000   24.6910000  
H  7.4020000   19.6110000   23.3070000  
H  7.6280000   21.3470000   21.0270000  
H  7.9900000   22.9710000   20.0020000  
H 11.7560000   20.7320000   20.5170000  
H 12.1320000   17.1220000   23.9810000  
H  9.0860000   17.0000000   25.1490000  
C 12.6510000   18.6930000   22.2430000  
C 13.5540000   18.8050000   23.3620000  
C 14.8620000   18.4380000   23.2010000  
C 15.4260000   18.0210000   21.9750000  
C 14.4820000   17.8770000   20.8840000  
C 13.0820000   18.2030000   20.9930000  
C 13.3560000   19.4440000   24.6540000  
C 14.6100000   19.4290000   25.2180000  
N 15.4830000   18.8220000   24.3330000  
O 13.8710000   20.3970000   27.2650000  
C 14.9500000   19.9320000   26.5840000  
O 16.0630000   19.8980000   27.0500000  
O 14.8770000   17.4450000   19.6220000  
O 12.2820000   18.0000000   19.9370000  
H 12.3940000   19.6170000   25.1180000  
H 13.1490000   20.2820000   26.5640000  
H 16.3810000   18.4810000   24.5080000  
H 14.1190000   17.4090000   19.0650000  
H 11.4610000   18.3550000   20.2800000  
C 16.8840000   17.5810000   21.8690000  
C 17.2400000   16.2690000   21.4690000  
C 18.5760000   15.9610000   21.4450000  
C 19.6320000   16.7400000   21.9340000  
C 19.2790000   18.0080000   22.4060000  
C 17.9370000   18.4700000   22.3420000  
C 16.5360000   15.1160000   20.9100000  
C 17.5200000   14.2250000   20.5700000  
N 18.8030000   14.6580000   20.9990000  
O 16.1140000   12.5410000   19.4100000  
C 17.3510000   12.8730000   19.8610000  
O 18.3020000   12.0720000   19.7160000  
O 20.2200000   18.7920000   22.9400000  
O 17.7500000   19.8100000   22.5310000  
H 15.4190000   14.9360000   20.8620000  
H 15.6140000   13.3700000   19.6480000  
H 19.7310000   14.2600000   20.7950000  
H 21.0430000   18.2700000   22.8970000  
H 16.7890000   20.0870000   22.5200000  
C 21.0220000   16.2750000   22.0930000  
C 21.8170000   16.2730000   20.9250000  
C 23.0700000   15.6800000   21.0360000  
C 23.5810000   15.1150000   22.2280000  
C 22.7900000   15.1810000   23.3520000  
C 21.5060000   15.7270000   23.3150000  
C 21.5880000   16.5820000   19.5510000  
C 22.7050000   16.1180000   18.8780000  
N 23.6020000   15.5520000   19.8020000  
O 21.9430000   16.6890000   16.6440000  
C 22.9690000   16.2510000   17.3980000  
O 23.9210000   15.7990000   16.8510000  
O 23.3390000   14.5480000   24.4220000  
O 20.7690000   15.8170000   24.5000000  
H 20.7700000   17.1430000   19.1320000  
H 21.3070000   17.0660000   17.2330000  
H 24.3180000   14.8870000   19.5480000  
H 22.7220000   14.5500000   25.2010000  
H 19.8980000   15.8940000   24.2420000  
H 24.4620000   14.6380000   22.3610000  
