78
101 
C 11.4680000   21.4430000   23.7820000  
C 11.7810000   22.0540000   25.0810000  
C 13.1490000   22.0250000   25.4490000  
C 14.1470000   21.4770000   24.6580000  
C 13.8790000   20.8210000   23.4470000  
C 12.5150000   20.8400000   23.0490000  
C 13.8080000   22.4120000   26.6790000  
C 15.1720000   21.9450000   26.5460000  
N 15.3610000   21.5000000   25.2310000  
O 15.9310000   22.6700000   28.6970000  
C 16.2970000   22.1110000   27.5670000  
O 17.4810000   21.8060000   27.3430000  
O 12.2330000   20.2880000   21.8120000  
O 10.2970000   21.6000000   23.1650000  
H 10.9630000   22.5050000   25.7300000  
H 13.4090000   22.8720000   27.5410000  
H 15.0690000   23.0420000   28.4990000  
H 16.1660000   21.3690000   24.7860000  
H 13.0120000   19.8150000   21.5390000  
H 10.3470000   21.1440000   22.3140000  
C 14.9980000   20.0460000   22.7180000  
C 14.9260000   18.6090000   22.6660000  
C 15.9450000   17.8580000   22.2780000  
C 17.2130000   18.3640000   21.8540000  
C 17.2340000   19.7740000   21.7290000  
C 16.1570000   20.6680000   22.1620000  
C 13.8400000   17.7570000   23.0060000  
C 14.3290000   16.4870000   22.8550000  
N 15.6590000   16.5430000   22.4570000  
O 12.4100000   15.2880000   23.6520000  
C 13.7090000   15.2700000   23.2420000  
O 14.3090000   14.2310000   23.2180000  
O 18.3680000   20.4030000   21.3190000  
O 16.3440000   22.0530000   22.1590000  
H 12.8180000   18.0020000   23.3380000  
H 12.0070000   16.1890000   23.5060000  
H 16.1860000   15.7940000   22.2140000  
H 18.2250000   21.3520000   21.3950000  
H 15.7910000   22.4400000   22.8700000  
C 18.3550000   17.5170000   21.3190000  
C 18.8160000   17.6190000   20.0370000  
C 19.8580000   16.8060000   19.6070000  
C 20.5750000   15.9390000   20.4550000  
C 20.1350000   15.9190000   21.8000000  
C 19.0450000   16.6810000   22.1920000  
C 18.3370000   18.2300000   18.8370000  
C 19.2300000   17.8370000   17.8060000  
N 20.1850000   16.9520000   18.2380000  
O 18.0660000   19.0580000   16.2020000  
C 19.1680000   18.2770000   16.4320000  
O 19.9650000   18.0090000   15.5060000  
O 20.6620000   14.9820000   22.6930000  
O 18.6110000   16.5070000   23.4400000  
H 17.4950000   18.9210000   18.7680000  
H 17.4560000   19.0160000   16.9570000  
H 20.7280000   16.3410000   17.6330000  
H 21.5990000   14.8140000   22.3950000  
H 19.3940000   16.2340000   23.8950000  
C 21.7640000   15.1590000   20.1200000  
C 23.0280000   15.6920000   20.2690000  
C 24.1530000   14.9730000   20.0720000  
C 24.1500000   13.7560000   19.5020000  
C 22.9390000   13.1040000   19.2950000  
C 21.7020000   13.7890000   19.6670000  
C 23.4100000   17.0530000   20.6630000  
C 24.7700000   17.0900000   20.5800000  
N 25.2600000   15.7960000   20.2970000  
O 25.1300000   19.4880000   21.0130000  
C 25.6680000   18.2890000   20.6620000  
O 26.8910000   18.2590000   20.3860000  
O 22.8290000   11.7920000   19.0270000  
O 20.4790000   13.1640000   19.4340000  
H 22.7880000   17.9520000   20.7570000  
H 24.3420000   19.2330000   21.4820000  
H 26.2590000   15.6070000   20.0410000  
H 21.9510000   11.5300000   18.6820000  
H 19.8490000   13.9160000   19.3610000  
H 25.0690000   13.3250000   19.2080000  
