78
101 
C 13.0090000   20.5080000   26.8360000  
C 13.5490000   21.6610000   27.4920000  
C 14.6670000   22.1520000   26.8990000  
C 15.2530000   21.5320000   25.8250000  
C 14.8190000   20.3920000   25.1720000  
C 13.5870000   19.9130000   25.6550000  
C 15.4080000   23.3180000   27.1590000  
C 16.5290000   23.3260000   26.2670000  
N 16.4700000   22.1550000   25.5570000  
O 17.4050000   25.3970000   26.9930000  
C 17.4770000   24.3890000   26.1160000  
O 18.2880000   24.3650000   25.2510000  
O 13.0560000   18.8390000   25.1070000  
O 11.8520000   19.9970000   27.3290000  
H 13.0450000   22.0830000   28.2950000  
H 15.1290000   24.0670000   27.8490000  
H 16.5880000   25.2200000   27.4480000  
H 17.1020000   21.9140000   24.8000000  
H 13.7020000   18.5980000   24.4270000  
H 11.7040000   19.1620000   26.8950000  
C 15.6100000   19.6210000   24.1250000  
C 16.1540000   18.3980000   24.5250000  
C 16.9330000   17.7160000   23.6350000  
C 17.4450000   18.2260000   22.4130000  
C 16.9300000   19.5190000   22.0280000  
C 16.0210000   20.1800000   22.8950000  
C 16.0700000   17.5210000   25.6850000  
C 16.8030000   16.3710000   25.3970000  
N 17.3640000   16.5330000   24.1340000  
O 16.6570000   15.3210000   27.5490000  
C 17.1950000   15.2930000   26.3290000  
O 18.0670000   14.5530000   26.0080000  
O 17.5010000   20.0580000   20.8930000  
O 15.5350000   21.3440000   22.4600000  
H 15.6830000   17.8090000   26.6370000  
H 15.8840000   15.8810000   27.5290000  
H 18.2420000   16.0640000   23.6700000  
H 17.0920000   20.9510000   20.9020000  
H 15.0020000   21.6570000   23.1550000  
C 18.1960000   17.2780000   21.5410000  
C 17.8320000   17.0390000   20.1970000  
C 18.6170000   16.3220000   19.3520000  
C 19.8490000   15.6850000   19.6690000  
C 20.2300000   15.9830000   21.0090000  
C 19.4630000   16.7590000   21.9000000  
C 16.6910000   17.3980000   19.4310000  
C 16.8980000   16.9210000   18.1080000  
N 18.1460000   16.3100000   18.0870000  
O 15.0380000   17.8800000   17.1760000  
C 16.0950000   17.1470000   16.9220000  
O 16.3830000   16.7720000   15.7880000  
O 21.5220000   15.5560000   21.3490000  
O 19.9650000   17.1460000   23.0940000  
H 15.9070000   17.9020000   19.8630000  
H 15.0560000   17.9380000   18.1470000  
H 18.5760000   15.9310000   17.2900000  
H 22.0000000   15.1770000   20.5330000  
H 20.9190000   16.9400000   23.1610000  
C 20.7370000   15.1410000   18.6080000  
C 21.7950000   15.8580000   18.0430000  
C 22.4620000   15.4680000   16.8420000  
C 21.9900000   14.2970000   16.1960000  
C 20.9530000   13.5240000   16.7180000  
C 20.3890000   13.9180000   17.9350000  
C 22.4180000   17.0790000   18.4590000  
C 23.4320000   17.3560000   17.5170000  
N 23.4040000   16.3940000   16.5210000  
O 24.2270000   19.2570000   18.6670000  
C 24.3850000   18.4930000   17.5570000  
O 25.2040000   18.6880000   16.6600000  
O 20.5750000   12.4030000   16.0620000  
O 19.4230000   13.0810000   18.4180000  
H 22.3320000   17.5210000   19.4110000  
H 23.3930000   19.0040000   19.0210000  
H 23.8950000   16.4230000   15.6640000  
H 19.6260000   12.1710000   16.3330000  
H 18.9590000   13.5340000   19.2010000  
H 22.5090000   13.9930000   15.2930000  
