78
101 
C 14.4070000   21.5790000   27.1720000  
C 15.2830000   21.9000000   28.2340000  
C 16.6270000   21.4820000   28.2200000  
C 17.0440000   20.6960000   27.1570000  
C 16.2940000   20.3670000   26.0510000  
C 14.9320000   20.8470000   26.0550000  
C 17.6620000   21.5700000   29.2040000  
C 18.6950000   20.8090000   28.6740000  
N 18.2760000   20.1820000   27.4850000  
O 20.2990000   21.8470000   30.0610000  
C 20.1020000   20.9190000   29.0860000  
O 21.1060000   20.3800000   28.6600000  
O 14.1420000   20.4470000   25.0670000  
O 13.1780000   22.0980000   27.1520000  
H 14.8750000   22.4460000   29.0960000  
H 17.5850000   22.1390000   30.1670000  
H 19.4760000   22.2530000   30.2570000  
H 18.8640000   19.5520000   26.9650000  
H 14.5280000   19.6450000   24.6690000  
H 12.8630000   22.2370000   26.2620000  
C 16.8810000   19.5070000   24.9160000  
C 16.3380000   18.2140000   24.6190000  
C 16.9110000   17.4820000   23.5930000  
C 17.8740000   17.9800000   22.6820000  
C 18.4290000   19.2560000   23.0140000  
C 17.9150000   20.0730000   24.0900000  
C 15.4620000   17.3040000   25.3140000  
C 15.3320000   16.1540000   24.5570000  
N 16.2460000   16.2690000   23.4580000  
O 13.6920000   15.1300000   25.9090000  
C 14.3300000   15.0790000   24.7160000  
O 14.2630000   14.2920000   23.8630000  
O 19.3870000   19.8030000   22.2340000  
O 18.3670000   21.3480000   24.2540000  
H 14.7890000   17.5600000   26.1110000  
H 13.9470000   16.0120000   26.1670000  
H 16.3930000   15.6510000   22.6560000  
H 19.7230000   20.6500000   22.5580000  
H 17.8070000   21.8120000   24.9280000  
C 18.4680000   17.2380000   21.5370000  
C 17.8080000   17.4220000   20.2350000  
C 18.2860000   16.7310000   19.1700000  
C 19.4030000   15.9100000   19.1090000  
C 20.1000000   15.7480000   20.3140000  
C 19.5530000   16.2980000   21.5240000  
C 16.7840000   18.2840000   19.7270000  
C 16.8160000   18.1440000   18.2960000  
N 17.7710000   17.2160000   17.9690000  
O 15.1630000   19.8050000   17.7100000  
C 16.0570000   18.9350000   17.2740000  
O 16.3490000   18.7900000   16.1010000  
O 21.2270000   14.9240000   20.3990000  
O 20.1700000   15.9560000   22.7050000  
H 16.3130000   19.0720000   20.2940000  
H 15.2540000   19.7100000   18.7030000  
H 18.0490000   16.8970000   17.0460000  
H 21.6030000   14.5960000   19.5700000  
H 21.1050000   15.6810000   22.4460000  
C 19.9340000   15.4300000   17.7850000  
C 20.5320000   16.3500000   16.8810000  
C 21.0640000   15.9800000   15.6110000  
C 20.9980000   14.6600000   15.1930000  
C 20.3910000   13.6760000   16.0630000  
C 19.9060000   14.0570000   17.3390000  
C 20.5300000   17.7940000   16.9540000  
C 20.9620000   18.3250000   15.7660000  
N 21.3120000   17.1600000   14.9590000  
O 20.9800000   20.6750000   16.3290000  
C 21.0820000   19.7230000   15.3380000  
O 21.3520000   20.0570000   14.2020000  
O 20.4960000   12.3220000   15.6650000  
O 19.3490000   13.0350000   18.0600000  
H 20.3330000   18.3700000   17.8470000  
H 20.7050000   20.1740000   17.1620000  
H 21.6850000   17.1840000   14.0180000  
H 20.0500000   11.7380000   16.3000000  
H 19.1660000   13.3590000   18.9270000  
H 21.3120000   14.4300000   14.1680000  
