78
101 
C 15.9760000   14.5450000   15.3100000  
C 15.9240000   13.1780000   15.8110000  
C 16.2110000   12.9890000   17.1860000  
C 16.5560000   14.0640000   17.9540000  
C 16.6050000   15.3940000   17.5370000  
C 16.3450000   15.6320000   16.1830000  
C 16.1460000   11.8120000   18.0560000  
C 16.4240000   12.3130000   19.3390000  
N 16.7410000   13.6790000   19.2490000  
O 15.9320000   10.2300000   20.4290000  
C 16.3030000   11.5680000   20.6220000  
O 16.4830000   12.0330000   21.7010000  
O 16.2720000   16.9000000   15.7530000  
O 15.7440000   14.7710000   14.0310000  
H 15.6380000   12.4060000   15.1410000  
H 15.8640000   10.7820000   17.6510000  
H 15.8150000   10.1610000   19.4990000  
H 16.8910000   14.2630000   20.0330000  
H 16.2190000   17.2960000   16.5820000  
H 15.7530000   15.7600000   13.9520000  
C 17.1190000   16.4490000   18.4620000  
C 18.4310000   16.3030000   19.0240000  
C 18.8300000   17.1100000   20.0630000  
C 17.9220000   18.0340000   20.7180000  
C 16.7330000   18.3470000   20.0100000  
C 16.3580000   17.6150000   18.9120000  
C 19.5040000   15.3400000   18.8590000  
C 20.4130000   15.5560000   19.8780000  
N 20.0260000   16.6890000   20.5840000  
O 22.0020000   13.8880000   19.1150000  
C 21.7280000   14.9350000   19.9770000  
O 22.4770000   15.2720000   20.8950000  
O 15.8830000   19.3050000   20.5870000  
O 15.0710000   17.6920000   18.4290000  
H 19.6020000   14.6850000   17.9770000  
H 21.1660000   13.9530000   18.5910000  
H 20.4510000   16.9100000   21.5120000  
H 16.4550000   19.8500000   21.1830000  
H 14.6310000   18.5020000   18.7640000  
C 18.3230000   18.8190000   21.9050000  
C 18.2620000   20.2110000   22.0320000  
C 18.6070000   20.8540000   23.1750000  
C 19.0830000   20.2690000   24.3530000  
C 19.0390000   18.8280000   24.3480000  
C 18.6260000   18.1570000   23.1370000  
C 17.9970000   21.2680000   21.0780000  
C 18.2540000   22.5070000   21.6970000  
N 18.5730000   22.2370000   23.0320000  
O 18.2670000   23.5900000   19.4740000  
C 18.1640000   23.7420000   20.8780000  
O 18.1900000   24.8600000   21.3350000  
O 19.2500000   18.1680000   25.5480000  
O 18.5080000   16.8290000   23.2140000  
H 17.7450000   21.1050000   20.0290000  
H 18.3900000   22.6390000   19.1880000  
H 18.9620000   22.9170000   23.6630000  
H 19.3790000   18.8550000   26.2090000  
H 18.2130000   16.6540000   24.1330000  
C 19.5350000   21.1350000   25.5280000  
C 18.7380000   21.2380000   26.6940000  
C 19.1510000   21.9490000   27.7980000  
C 20.4740000   22.4190000   27.9690000  
C 21.2840000   22.3050000   26.8160000  
C 20.8470000   21.7090000   25.6310000  
C 17.4200000   20.7440000   26.9070000  
C 17.0670000   21.2900000   28.1390000  
N 18.1410000   21.9550000   28.7030000  
O 14.9660000   20.2270000   28.2230000  
C 15.8200000   20.9910000   28.8760000  
O 15.6050000   21.3940000   30.0350000  
O 22.4410000   23.0470000   26.7570000  
O 21.7700000   21.4740000   24.7210000  
H 16.7650000   20.1830000   26.2270000  
H 15.2580000   20.1680000   27.2680000  
H 18.1420000   22.3570000   29.6230000  
H 22.8490000   22.9510000   25.8460000  
H 21.3810000   20.9710000   24.0020000  
H 20.8160000   22.9120000   28.9080000  
