78
101 
C 16.9690000   12.6120000   17.0970000  
C 17.3570000   11.4010000   17.6790000  
C 18.0170000   11.4230000   18.8630000  
C 18.2170000   12.5520000   19.5560000  
C 17.8230000   13.7690000   19.0650000  
C 17.2790000   13.8310000   17.7820000  
C 18.6500000   10.4000000   19.6550000  
C 19.3180000   10.9490000   20.7720000  
N 19.0370000   12.3710000   20.6470000  
O 20.0450000    8.8570000   21.6560000  
C 20.0800000   10.1920000   21.7850000  
O 20.5310000   10.7490000   22.8210000  
O 16.8940000   14.9970000   17.2180000  
O 16.2230000   12.5100000   15.9700000  
H 17.0990000   10.4520000   17.1760000  
H 18.5670000    9.3650000   19.5050000  
H 19.7050000    8.6740000   20.7810000  
H 19.3330000   13.0470000   21.3200000  
H 17.3080000   15.6770000   17.7220000  
H 16.1460000   13.4680000   15.6960000  
C 17.8680000   14.9530000   19.9610000  
C 18.9360000   15.8120000   19.7560000  
C 19.0540000   16.9360000   20.4820000  
C 18.1600000   17.3300000   21.5070000  
C 17.2270000   16.3600000   21.8330000  
C 17.0430000   15.1820000   21.0390000  
C 19.9220000   15.9300000   18.6560000  
C 20.5290000   17.1950000   18.7710000  
N 20.0720000   17.7390000   19.9650000  
O 21.8450000   17.1450000   16.8070000  
C 21.5180000   17.8640000   17.9090000  
O 21.9380000   19.0120000   18.0650000  
O 16.4460000   16.4480000   22.9980000  
O 16.0740000   14.3390000   21.3410000  
H 20.2320000   15.1610000   17.8440000  
H 21.2970000   16.3580000   16.8850000  
H 20.2510000   18.6070000   20.4100000  
H 15.7790000   15.7580000   23.0480000  
H 16.2100000   13.6010000   20.7300000  
C 18.2360000   18.6590000   22.2510000  
C 17.0920000   19.4740000   22.1910000  
C 17.1280000   20.6850000   22.8370000  
C 18.2330000   21.2030000   23.5960000  
C 19.3790000   20.4070000   23.6390000  
C 19.4070000   19.1900000   22.9650000  
C 15.8820000   19.4540000   21.4220000  
C 15.2760000   20.7410000   21.5660000  
N 16.0410000   21.4510000   22.5360000  
O 13.4550000   20.3480000   20.1800000  
C 14.1210000   21.2640000   20.9410000  
O 13.7050000   22.4070000   21.1120000  
O 20.4330000   20.8250000   24.3680000  
O 20.5080000   18.3790000   23.1150000  
H 15.6140000   18.7070000   20.6840000  
H 13.7990000   19.4540000   20.2200000  
H 15.7070000   22.3160000   22.9930000  
H 20.5150000   21.7550000   24.4500000  
H 21.1780000   18.9920000   23.5150000  
C 18.1780000   22.6460000   24.0060000  
C 17.9390000   22.9150000   25.3830000  
C 18.1290000   24.1560000   25.8540000  
C 18.3960000   25.2850000   25.0140000  
C 18.6630000   25.0170000   23.6540000  
C 18.5140000   23.6910000   23.1590000  
C 17.5760000   22.0930000   26.5740000  
C 17.5640000   23.0230000   27.6050000  
N 17.9890000   24.2990000   27.1670000  
O 16.5630000   21.4740000   29.1040000  
C 16.9340000   22.7390000   28.9480000  
O 16.6740000   23.5200000   29.7970000  
O 18.8630000   26.0690000   22.8550000  
O 18.6510000   23.3690000   21.8190000  
H 17.1920000   21.0630000   26.6840000  
H 17.1710000   20.9600000   28.5600000  
H 18.0120000   25.1870000   27.6260000  
H 19.1870000   25.8220000   22.0060000  
H 18.1060000   22.5440000   21.6600000  
H 18.2630000   26.2840000   25.3400000  
