78
101 
C 11.2860000   16.7040000   19.3840000  
C 11.1790000   16.7790000   17.9920000  
C 12.3730000   16.8970000   17.2890000  
C 13.5520000   16.9930000   17.9410000  
C 13.7720000   17.0750000   19.3160000  
C 12.5610000   16.8310000   20.0370000  
C 12.6780000   16.9640000   15.8680000  
C 14.0660000   17.0900000   15.8160000  
N 14.6390000   17.1470000   17.0890000  
O 14.2670000   16.8480000   13.4480000  
C 14.8400000   17.1610000   14.5830000  
O 16.0410000   17.4790000   14.5540000  
O 12.7060000   16.7380000   21.3640000  
O 10.1310000   16.4350000   20.0920000  
H 10.1710000   16.6060000   17.4840000  
H 11.9500000   16.9380000   14.9620000  
H 13.4860000   16.3410000   13.7990000  
H 15.5720000   17.3580000   17.2980000  
H 13.6560000   16.8070000   21.4200000  
H 10.2720000   16.5430000   21.0070000  
C 15.1420000   17.2360000   19.9050000  
C 15.5070000   18.5640000   20.1400000  
C 16.7030000   18.7720000   20.8010000  
C 17.6020000   17.8180000   21.2250000  
C 17.2790000   16.5020000   20.8800000  
C 16.0280000   16.2290000   20.1660000  
C 14.7880000   19.7960000   19.9930000  
C 15.5810000   20.7530000   20.7620000  
N 16.7650000   20.1140000   21.1790000  
O 13.8890000   22.5260000   20.8370000  
C 15.1370000   22.1220000   21.2370000  
O 15.8500000   22.7780000   21.9880000  
O 18.0920000   15.5170000   21.3460000  
O 15.5990000   14.9630000   20.0030000  
H 13.8650000   20.0630000   19.4790000  
H 13.7110000   21.9030000   20.1110000  
H 17.4600000   20.4660000   21.8430000  
H 17.4900000   14.7150000   21.2360000  
H 14.7910000   15.0320000   19.4080000  
C 18.7450000   18.2490000   22.0890000  
C 18.7530000   17.8290000   23.3860000  
C 19.7920000   18.1180000   24.2480000  
C 20.8980000   18.9720000   23.9560000  
C 20.8420000   19.5600000   22.6120000  
C 19.8470000   19.0800000   21.6960000  
C 17.9470000   16.9090000   24.1980000  
C 18.4930000   16.7480000   25.4730000  
N 19.6480000   17.5340000   25.5210000  
O 16.6640000   15.4830000   26.2670000  
C 17.8110000   16.0730000   26.6120000  
O 18.2230000   16.1220000   27.7320000  
O 21.7280000   20.5070000   22.1340000  
O 19.8450000   19.6580000   20.4160000  
H 16.9570000   16.6330000   23.8820000  
H 16.4750000   15.5770000   25.2930000  
H 20.2590000   17.6560000   26.2650000  
H 22.4000000   20.7650000   22.7710000  
H 20.6180000   20.2600000   20.3640000  
C 22.0210000   19.2050000   24.8960000  
C 23.2660000   18.6660000   24.6870000  
C 24.3260000   19.0370000   25.4390000  
C 24.1710000   19.9090000   26.5330000  
C 22.9460000   20.4950000   26.8140000  
C 21.8130000   20.1240000   26.0190000  
C 23.7480000   17.6730000   23.8000000  
C 25.0820000   17.5260000   24.1350000  
N 25.4570000   18.3800000   25.1490000  
O 25.4670000   15.8250000   22.5150000  
C 26.0740000   16.6280000   23.4140000  
O 27.2550000   16.7050000   23.6170000  
O 22.8760000   21.4490000   27.8080000  
O 20.6490000   20.6740000   26.3840000  
H 23.1260000   16.9890000   23.2290000  
H 24.5110000   15.9220000   22.6650000  
H 26.4210000   18.6230000   25.5010000  
H 21.9630000   21.7160000   28.0280000  
H 19.9080000   20.3150000   25.7490000  
H 25.0620000   20.2670000   27.0620000  
