78
101 
C 12.3850000   22.0740000   23.8750000  
C 12.4990000   22.6670000   25.1550000  
C 13.4980000   22.1500000   25.9850000  
C 14.2840000   21.1130000   25.6320000  
C 14.3040000   20.6130000   24.3110000  
C 13.3190000   21.1130000   23.4080000  
C 13.9540000   22.5850000   27.2920000  
C 15.0590000   21.7550000   27.6960000  
N 15.3310000   20.8480000   26.6020000  
O 15.4530000   22.8050000   29.8130000  
C 15.8100000   21.8290000   28.9940000  
O 16.6870000   21.0680000   29.3050000  
O 13.4060000   20.6390000   22.1170000  
O 11.4160000   22.5200000   23.0760000  
H 11.9400000   23.4940000   25.5080000  
H 13.5410000   23.4420000   27.8170000  
H 14.6030000   23.0910000   29.4490000  
H 16.2670000   20.3130000   26.4600000  
H 13.9490000   19.8240000   22.0980000  
H 11.3740000   21.8740000   22.3250000  
C 15.3770000   19.7860000   23.8140000  
C 15.1810000   18.4400000   23.4350000  
C 16.1670000   17.7860000   22.7000000  
C 17.4430000   18.3110000   22.4340000  
C 17.7200000   19.5640000   22.9140000  
C 16.6890000   20.3110000   23.5300000  
C 14.0350000   17.5930000   23.4790000  
C 14.4270000   16.3920000   22.9020000  
N 15.7940000   16.4520000   22.5070000  
O 12.4390000   15.2220000   23.2210000  
C 13.5870000   15.1960000   22.6230000  
O 14.0200000   14.1880000   22.0780000  
O 18.9550000   20.1900000   22.7040000  
O 17.0240000   21.5270000   24.0080000  
H 13.0070000   17.9350000   23.8080000  
H 12.4100000   16.1340000   23.5970000  
H 16.2950000   15.8010000   21.9740000  
H 18.9640000   20.9580000   23.3340000  
H 16.2200000   22.0230000   24.2330000  
C 18.5180000   17.5340000   21.6960000  
C 19.1140000   17.8990000   20.4800000  
C 19.9090000   17.1200000   19.7470000  
C 20.3320000   15.8360000   20.1950000  
C 19.9010000   15.4480000   21.4460000  
C 18.9630000   16.2500000   22.2000000  
C 18.9260000   19.0650000   19.7060000  
C 19.7680000   18.9960000   18.5940000  
N 20.3180000   17.6940000   18.6050000  
O 19.1290000   21.0300000   17.7740000  
C 19.9300000   19.9640000   17.6070000  
O 20.6530000   19.8380000   16.6720000  
O 20.2260000   14.2850000   21.9990000  
O 18.4980000   15.7380000   23.4010000  
H 18.3880000   19.9910000   19.9580000  
H 18.7070000   20.7150000   18.5930000  
H 20.9980000   17.3450000   17.9060000  
H 20.8050000   13.8650000   21.3700000  
H 19.1390000   15.0650000   23.6740000  
C 21.1770000   14.9860000   19.2870000  
C 22.4730000   15.3770000   18.9420000  
C 23.2800000   14.5770000   18.1940000  
C 22.8760000   13.3550000   17.6190000  
C 21.5190000   13.0060000   17.8040000  
C 20.7410000   13.7850000   18.6990000  
C 23.3100000   16.5070000   19.2700000  
C 24.4590000   16.4990000   18.5370000  
N 24.5070000   15.2550000   17.9640000  
O 25.1340000   18.7290000   19.1430000  
C 25.4330000   17.6030000   18.3430000  
O 26.4420000   17.4920000   17.6950000  
O 20.9110000   11.8450000   17.2100000  
O 19.4750000   13.4200000   18.9620000  
H 23.0680000   17.3310000   19.9920000  
H 24.4700000   18.4200000   19.7660000  
H 25.3800000   14.8770000   17.6230000  
H 19.9400000   11.9270000   17.1730000  
H 19.0520000   13.9360000   19.6900000  
H 23.4540000   12.9200000   16.8780000  
