78
101 
C 23.6270000   14.2590000   24.5700000  
C 23.2670000   12.9220000   24.6890000  
C 22.0690000   12.4760000   24.1780000  
C 21.1980000   13.3890000   23.6140000  
C 21.4820000   14.7800000   23.4730000  
C 22.8040000   15.2080000   23.9820000  
C 21.4350000   11.1670000   24.1030000  
C 20.1960000   11.3610000   23.4720000  
N 20.1120000   12.7020000   23.0850000  
O 19.5000000    9.1210000   23.4880000  
C 19.1560000   10.3500000   23.1730000  
O 18.0390000   10.6990000   22.7060000  
O 23.1850000   16.4600000   23.9040000  
O 24.8990000   14.5760000   25.0180000  
H 23.9370000   12.2510000   25.2000000  
H 21.6460000   10.2740000   24.8050000  
H 20.4220000    9.1420000   23.7160000  
H 19.4630000   13.0090000   22.4100000  
H 22.5430000   16.9020000   23.3180000  
H 24.9340000   15.5400000   25.0020000  
C 20.5040000   15.7880000   23.0700000  
C 20.0590000   16.7720000   23.9340000  
C 19.0550000   17.5920000   23.5770000  
C 18.5430000   17.7190000   22.2570000  
C 18.9580000   16.6350000   21.3410000  
C 19.9030000   15.6920000   21.8110000  
C 20.2000000   16.9950000   25.3280000  
C 19.4690000   18.0980000   25.6960000  
N 18.7230000   18.4560000   24.5710000  
O 20.3930000   18.3330000   27.9020000  
C 19.4390000   18.7500000   27.0570000  
O 18.5750000   19.5130000   27.4640000  
O 18.3180000   16.4020000   20.1510000  
O 20.2820000   14.7520000   20.9480000  
H 20.8650000   16.4820000   25.8890000  
H 20.9640000   17.6910000   27.4090000  
H 17.9550000   19.1570000   24.4830000  
H 17.4720000   16.8130000   20.1240000  
H 19.5900000   14.7910000   20.1950000  
C 17.3950000   18.5980000   21.9710000  
C 17.6500000   19.9470000   21.7470000  
C 16.7390000   20.6690000   21.1280000  
C 15.4390000   20.2790000   20.7400000  
C 15.1540000   18.9120000   21.0310000  
C 16.0580000   18.0570000   21.6510000  
C 18.8000000   20.7790000   22.0640000  
C 18.5280000   21.9920000   21.4520000  
N 17.2120000   21.9730000   21.0130000  
O 20.6940000   22.8490000   22.0910000  
C 19.5500000   23.1020000   21.4540000  
O 19.3580000   24.1670000   20.8310000  
O 13.8310000   18.5790000   20.7490000  
O 15.6830000   16.7710000   21.9720000  
H 19.7420000   20.4930000   22.5910000  
H 20.4940000   21.9750000   22.4350000  
H 16.8010000   22.6490000   20.4530000  
H 13.3860000   19.4060000   20.4540000  
H 14.9020000   16.6160000   21.4150000  
C 14.4990000   21.2680000   20.1010000  
C 14.2100000   21.2030000   18.6940000  
C 13.4400000   22.2350000   18.0820000  
C 12.9130000   23.3670000   18.7160000  
C 13.0760000   23.3160000   20.1460000  
C 13.8030000   22.2950000   20.8230000  
C 14.9130000   20.5340000   17.6850000  
C 14.5410000   21.1330000   16.4910000  
N 13.6560000   22.2050000   16.7240000  
O 16.0060000   19.7250000   15.1440000  
C 15.1080000   20.7790000   15.1890000  
O 14.7170000   21.3990000   14.1790000  
O 12.3600000   24.2640000   20.8360000  
O 13.9220000   22.3490000   22.1580000  
H 15.5570000   19.6250000   17.7850000  
H 16.0140000   19.4500000   16.0490000  
H 13.4570000   22.9750000   16.0710000  
H 12.7940000   24.5050000   21.6750000  
H 14.0120000   21.4620000   22.5380000  
H 12.3630000   24.1200000   18.0850000  
