78
101 
C 19.1120000   18.6240000   29.3450000  
C 20.1120000   17.6860000   29.6020000  
C 20.5770000   16.9820000   28.4430000  
C 20.2030000   17.2630000   27.1450000  
C 19.2290000   18.2140000   26.9010000  
C 18.6300000   18.8750000   28.0540000  
C 21.6330000   16.0270000   28.2830000  
C 21.7600000   15.7200000   26.9730000  
N 20.8740000   16.4940000   26.2020000  
O 23.4100000   14.1340000   27.2990000  
C 22.6310000   14.6990000   26.3740000  
O 22.7300000   14.4490000   25.1930000  
O 17.7100000   19.7950000   27.8690000  
O 18.5950000   19.2590000   30.4200000  
H 20.5020000   17.5190000   30.5930000  
H 22.1880000   15.4570000   29.1030000  
H 23.1860000   14.6090000   28.1140000  
H 20.7330000   16.4280000   25.2700000  
H 17.4930000   19.7880000   26.9090000  
H 17.7370000   19.5660000   30.0950000  
C 18.7880000   18.4400000   25.4890000  
C 17.4140000   18.2240000   25.1400000  
C 17.0340000   18.2160000   23.8370000  
C 17.9710000   18.4950000   22.7990000  
C 19.2770000   18.9930000   23.1270000  
C 19.6590000   18.9150000   24.5260000  
C 16.2930000   17.6660000   25.8790000  
C 15.4510000   17.0840000   24.9550000  
N 15.9010000   17.4580000   23.6440000  
O 13.8580000   16.1580000   26.4550000  
C 14.1650000   16.3330000   25.1490000  
O 13.4190000   15.8980000   24.2210000  
O 20.1790000   19.4260000   22.2120000  
O 20.9410000   19.2620000   24.9450000  
H 16.2640000   17.6090000   26.9780000  
H 14.6600000   16.4580000   26.9140000  
H 15.4810000   17.2350000   22.7500000  
H 20.9200000   19.7670000   22.7060000  
H 20.8960000   19.3000000   25.9040000  
C 17.5970000   18.2820000   21.4150000  
C 17.5450000   19.3950000   20.5090000  
C 17.1370000   19.2230000   19.2110000  
C 16.8870000   17.9450000   18.6750000  
C 17.0460000   16.8250000   19.5710000  
C 17.3700000   16.9750000   20.8820000  
C 17.6210000   20.8430000   20.6290000  
C 17.3220000   21.4010000   19.4190000  
N 17.1500000   20.3770000   18.4950000  
O 17.4960000   23.6200000   20.1540000  
C 17.2200000   22.7970000   19.1280000  
O 16.9590000   23.1910000   18.0090000  
O 16.8850000   15.5710000   19.0790000  
O 17.5810000   15.9220000   21.7010000  
H 17.9860000   21.4180000   21.4320000  
H 17.4990000   23.0030000   20.8710000  
H 17.0470000   20.4340000   17.4950000  
H 16.7770000   15.6660000   18.1100000  
H 17.6850000   15.1170000   21.1510000  
C 16.5850000   17.7470000   17.2660000  
C 17.3490000   18.2540000   16.1400000  
C 16.9030000   18.1570000   14.8530000  
C 15.6770000   17.5320000   14.5460000  
C 14.8740000   17.0720000   15.6060000  
C 15.2720000   17.1820000   16.9080000  
C 18.6930000   18.7600000   16.1110000  
C 19.0740000   18.7410000   14.7730000  
N 18.0000000   18.3810000   14.0000000  
O 21.3720000   19.2110000   15.2510000  
C 20.4110000   19.1550000   14.2890000  
O 20.6490000   19.4300000   13.1130000  
O 13.6900000   16.5440000   15.3060000  
O 14.3790000   17.0460000   17.9670000  
H 19.2540000   19.1180000   16.9670000  
H 20.9630000   18.8700000   16.0490000  
H 17.9500000   18.5110000   13.0350000  
H 13.3260000   16.0530000   16.0620000  
H 14.7780000   17.6220000   18.6890000  
H 15.3060000   17.3270000   13.5580000  
