78
101 
C 11.6920000   16.4500000   18.3040000  
C 11.3080000   17.5140000   17.3850000  
C 12.2150000   18.5570000   17.2970000  
C 13.4200000   18.6490000   18.0630000  
C 13.7420000   17.6540000   19.0380000  
C 12.8800000   16.5160000   19.0750000  
C 12.1050000   19.8160000   16.6500000  
C 13.2700000   20.6190000   17.0560000  
N 14.0400000   19.8310000   17.9980000  
O 12.7280000   22.5380000   15.8280000  
C 13.6170000   21.9590000   16.6630000  
O 14.6380000   22.4500000   17.0370000  
O 13.1050000   15.4970000   19.9370000  
O 10.8540000   15.3980000   18.4770000  
H 10.4320000   17.4300000   16.7760000  
H 11.5030000   19.9920000   15.8250000  
H 11.8490000   22.2430000   16.1110000  
H 14.9600000   20.0610000   18.3080000  
H 14.0580000   15.4860000   20.2800000  
H 11.4300000   14.8120000   18.9780000  
C 14.9960000   17.7550000   19.8840000  
C 15.0180000   17.7020000   21.2640000  
C 16.1690000   17.8450000   21.9560000  
C 17.4330000   17.8360000   21.3880000  
C 17.4330000   17.6950000   19.9970000  
C 16.2480000   17.7170000   19.2240000  
C 13.9260000   17.6360000   22.1540000  
C 14.4930000   17.7510000   23.4390000  
N 15.8960000   17.8530000   23.3390000  
O 12.4520000   17.8580000   24.7930000  
C 13.8040000   17.6240000   24.7480000  
O 14.4120000   17.3950000   25.7710000  
O 18.6370000   17.4250000   19.3520000  
O 16.3680000   17.4440000   17.8630000  
H 12.9060000   17.5640000   21.8920000  
H 12.1090000   17.9200000   23.8640000  
H 16.6080000   17.9110000   24.0140000  
H 18.3820000   17.3150000   18.3870000  
H 15.4570000   17.2420000   17.5870000  
C 18.6350000   17.9210000   22.2980000  
C 19.5580000   16.8650000   22.4660000  
C 20.5690000   16.9970000   23.3370000  
C 20.9510000   18.1930000   23.9660000  
C 20.0500000   19.2570000   23.8140000  
C 18.8630000   19.1030000   22.9880000  
C 19.5220000   15.5110000   22.0230000  
C 20.6100000   14.8880000   22.5710000  
N 21.2730000   15.7960000   23.3730000  
O 20.2300000   12.7470000   21.5130000  
C 21.0680000   13.4820000   22.2880000  
O 22.0260000   13.0310000   22.9150000  
O 20.2460000   20.4340000   24.4460000  
O 18.0230000   20.1680000   22.8000000  
H 18.6730000   15.0860000   21.4630000  
H 19.2860000   13.0780000   21.4190000  
H 22.0110000   15.5010000   24.0120000  
H 20.9500000   20.3110000   25.1790000  
H 18.1580000   20.8630000   23.4530000  
C 22.0950000   18.3210000   24.9090000  
C 23.2520000   19.0450000   24.5710000  
C 24.3180000   19.1380000   25.4400000  
C 24.4110000   18.4340000   26.6070000  
C 23.2770000   17.7110000   26.9490000  
C 22.1390000   17.6340000   26.1610000  
C 23.4400000   19.8480000   23.3830000  
C 24.7410000   20.4020000   23.6280000  
N 25.2820000   19.9870000   24.9160000  
O 24.6770000   21.4530000   21.5790000  
C 25.4660000   21.1650000   22.6320000  
O 26.6330000   21.5830000   22.7250000  
O 23.2010000   17.1960000   28.1900000  
O 21.0500000   16.8260000   26.4940000  
H 22.7440000   19.9320000   22.5020000  
H 23.7690000   21.2160000   21.8700000  
H 26.1950000   20.1460000   25.2300000  
H 22.4110000   16.6220000   28.1890000  
H 20.2970000   16.9920000   25.8970000  
H 25.2550000   18.5180000   27.2380000  
