78
101 
C 11.2950000   20.8310000   22.1880000  
C 11.2030000   21.9090000   23.1480000  
C 12.3290000   22.2370000   23.8700000  
C 13.4940000   21.5210000   23.7570000  
C 13.6280000   20.4070000   22.8500000  
C 12.4940000   20.0620000   22.1180000  
C 12.5870000   23.2540000   24.8450000  
C 13.9410000   23.1600000   25.1900000  
N 14.5230000   22.1200000   24.4670000  
O 13.8230000   24.9310000   26.7410000  
C 14.6270000   23.9810000   26.1760000  
O 15.7910000   23.9230000   26.4640000  
O 12.6430000   19.1620000   21.1110000  
O 10.2510000   20.5770000   21.3250000  
H 10.3230000   22.4870000   23.2030000  
H 11.8490000   23.9160000   25.1350000  
H 13.1440000   25.2200000   26.1450000  
H 15.4680000   21.7050000   24.7230000  
H 13.5850000   19.1460000   21.0110000  
H 10.4490000   19.7450000   20.8490000  
C 14.9620000   19.7630000   22.6560000  
C 15.0380000   18.3980000   22.8870000  
C 16.2480000   17.7510000   22.6540000  
C 17.3790000   18.3610000   22.0990000  
C 17.2620000   19.7450000   21.8220000  
C 16.0900000   20.4520000   22.2520000  
C 14.1510000   17.3560000   23.4030000  
C 14.8860000   16.1890000   23.4760000  
N 16.2720000   16.4530000   22.9570000  
O 13.1610000   14.8550000   24.1450000  
C 14.4480000   14.8770000   23.8170000  
O 15.1090000   13.9030000   23.7430000  
O 18.3210000   20.4180000   21.2410000  
O 16.0170000   21.8140000   21.9790000  
H 13.1360000   17.5640000   23.7370000  
H 13.0830000   15.8340000   24.3830000  
H 17.0260000   15.7370000   22.9280000  
H 18.3350000   21.2870000   21.6280000  
H 15.0710000   22.1610000   22.1120000  
C 18.6370000   17.5960000   21.7390000  
C 19.0010000   17.3390000   20.3680000  
C 20.1420000   16.6240000   20.0510000  
C 20.9550000   16.0220000   21.0080000  
C 20.6050000   16.2920000   22.3600000  
C 19.4520000   16.9960000   22.7300000  
C 18.3360000   17.5520000   19.1610000  
C 19.1150000   16.9460000   18.1360000  
N 20.2450000   16.3290000   18.7050000  
O 17.7550000   17.5650000   16.3090000  
C 18.7850000   16.8680000   16.7030000  
O 19.3830000   16.1570000   15.9510000  
O 21.2690000   15.5750000   23.3070000  
O 19.0940000   16.9530000   23.9790000  
H 17.3600000   18.0370000   19.0770000  
H 17.3340000   17.7400000   17.1470000  
H 20.9750000   15.7810000   18.3030000  
H 21.7560000   14.7510000   22.9540000  
H 19.8440000   16.3850000   24.2640000  
C 22.1940000   15.3600000   20.7150000  
C 23.4330000   15.9390000   20.9900000  
C 24.5240000   15.3760000   20.4980000  
C 24.5340000   14.1640000   19.7730000  
C 23.3490000   13.4940000   19.4590000  
C 22.1430000   14.1350000   19.9180000  
C 23.7540000   17.0980000   21.6620000  
C 25.1190000   17.2620000   21.5030000  
N 25.5760000   16.1970000   20.8020000  
O 25.3840000   19.4560000   22.3750000  
C 25.9620000   18.3340000   21.8940000  
O 27.1660000   18.3110000   21.6480000  
O 23.3640000   12.2730000   18.8410000  
O 21.0090000   13.5480000   19.5820000  
H 23.1380000   17.7430000   22.2210000  
H 24.4420000   19.3390000   22.2180000  
H 26.5580000   16.1690000   20.5550000  
H 22.4710000   12.0230000   18.5450000  
H 20.2770000   13.9430000   20.0660000  
H 25.4700000   13.7220000   19.5160000  
