78
101 
C 17.2590000   20.7260000   29.0170000  
C 17.5060000   19.5730000   29.7870000  
C 17.8740000   18.3390000   29.1580000  
C 18.0130000   18.3000000   27.7980000  
C 17.6040000   19.3180000   26.9270000  
C 17.3170000   20.5410000   27.5920000  
C 18.2460000   17.0340000   29.6610000  
C 18.5760000   16.2900000   28.5360000  
N 18.4170000   17.0770000   27.3440000  
O 19.0680000   14.3170000   29.7720000  
C 19.0330000   14.9090000   28.5670000  
O 19.1750000   14.2760000   27.5190000  
O 16.9580000   21.6640000   26.8710000  
O 16.9640000   21.9120000   29.6020000  
H 17.4200000   19.6430000   30.8410000  
H 18.3400000   16.7600000   30.7420000  
H 18.8370000   14.9970000   30.3630000  
H 18.4270000   16.7170000   26.3730000  
H 16.5430000   21.2500000   26.1030000  
H 16.6050000   22.5070000   28.9780000  
C 17.7660000   19.1990000   25.4590000  
C 16.6270000   19.2860000   24.6060000  
C 16.7430000   19.0420000   23.2550000  
C 17.9250000   18.6520000   22.5640000  
C 19.0170000   18.5480000   23.3730000  
C 18.9610000   18.8290000   24.7560000  
C 15.1600000   19.5130000   24.7980000  
C 14.5480000   19.5500000   23.5050000  
N 15.5920000   19.2490000   22.5860000  
O 12.2620000   20.1350000   24.1250000  
C 13.0860000   19.6380000   23.2240000  
O 12.6540000   19.6060000   22.0450000  
O 20.2310000   18.3030000   22.8370000  
O 20.0660000   18.8040000   25.4880000  
H 14.6110000   19.5390000   25.7670000  
H 12.7140000   20.0570000   25.0070000  
H 15.4240000   19.0170000   21.6360000  
H 20.8530000   18.5430000   23.5420000  
H 19.9310000   19.3320000   26.2610000  
C 17.7870000   18.2840000   21.0990000  
C 18.3580000   19.1070000   20.1250000  
C 18.3500000   18.8490000   18.8140000  
C 17.8430000   17.6630000   18.3060000  
C 17.2790000   16.7210000   19.2520000  
C 17.2350000   17.0540000   20.6420000  
C 19.2000000   20.2680000   20.3080000  
C 19.6080000   20.6760000   19.0110000  
N 19.1810000   19.6720000   18.1320000  
O 20.6580000   22.7090000   19.5420000  
C 20.4310000   21.8290000   18.5910000  
O 20.8540000   21.9910000   17.4620000  
O 16.6700000   15.5070000   18.8410000  
O 16.5740000   16.2240000   21.5440000  
H 19.7830000   20.5040000   21.1890000  
H 20.2890000   22.3250000   20.3750000  
H 19.3970000   19.6470000   17.1330000  
H 17.2360000   15.0690000   18.2090000  
H 16.1940000   15.5550000   21.0020000  
C 18.0560000   17.2490000   16.8820000  
C 18.9410000   16.2060000   16.4410000  
C 19.1890000   16.0280000   15.0950000  
C 18.5910000   16.7860000   14.0780000  
C 17.6900000   17.7350000   14.5220000  
C 17.4260000   18.0590000   15.8470000  
C 19.7330000   15.2480000   17.1640000  
C 20.5080000   14.6040000   16.2060000  
N 20.2280000   15.1390000   14.9200000  
O 21.7400000   13.4270000   17.8530000  
C 21.5940000   13.6400000   16.5300000  
O 22.3950000   13.3050000   15.6670000  
O 16.9820000   18.4450000   13.6400000  
O 16.5890000   19.0600000   16.2010000  
H 19.5770000   14.9100000   18.1500000  
H 21.1190000   14.0390000   18.2250000  
H 20.6210000   14.8040000   14.0890000  
H 16.4540000   19.0320000   14.2050000  
H 16.0810000   18.9320000   17.0100000  
H 18.7910000   16.7490000   13.0300000  
