78
101 
C 17.4340000   10.7870000   19.9980000  
C 17.6950000   10.7030000   18.6390000  
C 18.0260000   11.8290000   17.9790000  
C 18.1720000   13.0350000   18.6200000  
C 18.0100000   13.2180000   20.0030000  
C 17.6800000   12.0110000   20.6710000  
C 18.5940000   12.0780000   16.6630000  
C 18.8290000   13.4570000   16.5730000  
N 18.6070000   14.0440000   17.8330000  
O 19.6730000   13.4970000   14.3730000  
C 19.4510000   14.2280000   15.4590000  
O 19.7390000   15.4000000   15.4920000  
O 17.4210000   12.0150000   21.9700000  
O 17.1140000    9.6540000   20.6090000  
H 17.6590000    9.7160000   18.2170000  
H 18.6570000   11.3460000   15.8210000  
H 19.2320000   12.6460000   14.5510000  
H 18.7140000   15.0500000   18.0640000  
H 17.3160000   12.9310000   22.2180000  
H 16.7760000   10.0320000   21.4890000  
C 18.1260000   14.5830000   20.6940000  
C 17.1990000   15.5330000   20.3530000  
C 17.3590000   16.8250000   20.7720000  
C 18.3790000   17.2320000   21.7030000  
C 19.2750000   16.2050000   22.1670000  
C 19.2040000   14.8990000   21.6120000  
C 16.0140000   15.6010000   19.5120000  
C 15.5360000   16.9630000   19.5290000  
N 16.3800000   17.6820000   20.3510000  
O 13.9310000   16.5440000   17.8680000  
C 14.4810000   17.4510000   18.6530000  
O 14.1460000   18.6510000   18.5960000  
O 20.1000000   16.3830000   23.2040000  
O 20.1060000   13.9090000   21.9470000  
H 15.5940000   14.7620000   18.9410000  
H 14.3210000   15.7050000   18.1360000  
H 16.3070000   18.7010000   20.5830000  
H 20.3900000   17.3420000   23.2480000  
H 20.1560000   13.2400000   21.2870000  
C 18.7010000   18.6030000   22.1750000  
C 17.6750000   19.2770000   22.8770000  
C 17.8650000   20.5850000   23.3140000  
C 19.0470000   21.3350000   23.2170000  
C 20.0610000   20.7000000   22.4660000  
C 19.8580000   19.3730000   21.9510000  
C 16.3610000   18.8350000   23.2990000  
C 15.8320000   19.9340000   23.9540000  
N 16.7570000   21.0100000   23.9470000  
O 13.6240000   18.9530000   24.0970000  
C 14.3990000   20.0050000   24.4040000  
O 13.8530000   20.9450000   24.9990000  
O 21.2980000   21.3280000   22.3480000  
O 20.9670000   18.8230000   21.3600000  
H 15.9470000   17.8010000   23.1370000  
H 14.2350000   18.4610000   23.5150000  
H 16.5730000   21.9420000   24.2880000  
H 21.3300000   22.0360000   22.9750000  
H 21.7430000   19.4400000   21.2350000  
C 19.0730000   22.7110000   23.7300000  
C 19.0770000   22.9480000   25.1050000  
C 19.0410000   24.2590000   25.5790000  
C 19.1210000   25.3340000   24.7860000  
C 19.2000000   25.1250000   23.4280000  
C 19.1660000   23.7980000   22.8530000  
C 19.0980000   22.0520000   26.2500000  
C 19.2870000   22.8950000   27.3130000  
N 19.0450000   24.2020000   26.9720000  
O 19.5490000   21.0090000   28.7650000  
C 19.5530000   22.3510000   28.6200000  
O 19.7890000   23.0100000   29.5830000  
O 19.3170000   26.1900000   22.5570000  
O 19.1280000   23.6520000   21.4870000  
H 19.1310000   20.9640000   26.3320000  
H 19.3110000   20.6470000   27.8930000  
H 19.0440000   25.0180000   27.6020000  
H 19.2360000   25.9630000   21.6140000  
H 19.0840000   22.6980000   21.2640000  
H 19.0500000   26.3150000   25.2070000  
