78
101 
C 23.3390000   14.1930000   24.9870000  
C 22.8340000   13.1530000   25.7780000  
C 21.4640000   12.9720000   25.9830000  
C 20.6110000   13.7830000   25.3570000  
C 21.0210000   14.8550000   24.5220000  
C 22.3680000   15.0420000   24.3170000  
C 20.6920000   12.1430000   26.8480000  
C 19.3000000   12.5550000   26.7630000  
N 19.3380000   13.5550000   25.7220000  
O 18.4830000   11.2740000   28.5820000  
C 18.1060000   12.1830000   27.6250000  
O 16.9860000   12.6860000   27.5290000  
O 22.8450000   16.0290000   23.4470000  
O 24.6950000   14.2590000   24.8540000  
H 23.4560000   12.5460000   26.4410000  
H 21.2060000   11.6380000   27.6950000  
H 19.4020000   11.0510000   28.4110000  
H 18.6100000   14.2650000   25.5550000  
H 22.1590000   16.6510000   23.3950000  
H 24.7510000   15.1480000   24.4230000  
C 20.0960000   15.7960000   23.8580000  
C 20.1060000   17.1540000   24.0600000  
C 19.1890000   17.9390000   23.3860000  
C 18.2430000   17.5340000   22.4150000  
C 18.2670000   16.1290000   22.1720000  
C 19.1790000   15.2690000   22.8370000  
C 20.8140000   18.0310000   24.8910000  
C 20.3070000   19.3080000   24.7680000  
N 19.3930000   19.2600000   23.7110000  
O 21.9140000   20.3080000   26.3190000  
C 20.7790000   20.5090000   25.5580000  
O 20.2130000   21.5940000   25.5120000  
O 17.3460000   15.5350000   21.3800000  
O 19.1850000   13.9710000   22.5700000  
H 21.5290000   17.7320000   25.6850000  
H 22.3740000   19.6030000   25.9050000  
H 18.8140000   20.0870000   23.5340000  
H 17.4000000   14.5990000   21.4730000  
H 20.0510000   13.6750000   22.8540000  
C 17.3010000   18.4810000   21.7390000  
C 17.4480000   18.6560000   20.3500000  
C 16.9090000   19.7480000   19.7420000  
C 16.0160000   20.5810000   20.3860000  
C 15.7410000   20.3140000   21.7540000  
C 16.4220000   19.3480000   22.4210000  
C 18.2760000   18.0620000   19.2680000  
C 18.2400000   18.9160000   18.1820000  
N 17.2920000   19.9410000   18.4430000  
O 19.8540000   17.8780000   16.8450000  
C 18.8530000   18.7970000   16.8600000  
O 18.6750000   19.5090000   15.9350000  
O 14.9100000   21.1880000   22.4530000  
O 16.1460000   19.1270000   23.7470000  
H 18.8460000   17.1570000   19.3990000  
H 19.8180000   17.3740000   17.6860000  
H 17.0390000   20.6830000   17.7100000  
H 14.3440000   21.6610000   21.7900000  
H 15.7310000   19.9290000   24.0610000  
C 15.3650000   21.7430000   19.6310000  
C 14.6330000   21.4360000   18.4490000  
C 14.1810000   22.4690000   17.6350000  
C 14.2970000   23.7840000   18.0410000  
C 15.0380000   24.0960000   19.2120000  
C 15.5690000   23.0930000   19.9980000  
C 14.3800000   20.1570000   17.7140000  
C 13.8590000   20.5000000   16.4790000  
N 13.6920000   21.9110000   16.4060000  
O 13.7680000   18.3340000   15.5930000  
C 13.5620000   19.6230000   15.3620000  
O 13.0530000   19.9880000   14.3460000  
O 15.2520000   25.4800000   19.5010000  
O 16.3920000   23.3740000   21.0640000  
H 14.5670000   19.1530000   18.0260000  
H 14.5200000   18.2840000   16.2650000  
H 13.1760000   22.3680000   15.6720000  
H 15.9870000   25.6030000   20.1890000  
H 16.6180000   22.5130000   21.4960000  
H 13.9220000   24.5800000   17.4660000  
