78
101 
C 11.4360000   20.8130000   23.2790000  
C 10.5530000   20.5750000   22.1650000  
C 10.9950000   19.7900000   21.0850000  
C 12.2480000   19.4500000   21.0500000  
C 13.2320000   19.6100000   22.0570000  
C 12.7370000   20.2860000   23.2400000  
C 10.3650000   19.2300000   19.8620000  
C 11.3670000   18.5970000   19.1310000  
N 12.5620000   18.7210000   19.9130000  
O  9.9650000   17.5600000   17.4560000  
C 11.2270000   17.7760000   17.9050000  
O 12.2160000   17.3420000   17.3420000  
O 13.6110000   20.3520000   24.3000000  
O 10.8970000   21.4010000   24.3850000  
H  9.4860000   20.8570000   22.1940000  
H  9.3000000   19.2110000   19.6360000  
H  9.2930000   17.9520000   17.9840000  
H 13.4080000   18.2500000   19.7100000  
H 14.3830000   19.8710000   24.1030000  
H 11.6320000   21.5540000   24.9790000  
C 14.6180000   19.1640000   21.9060000  
C 15.5730000   20.1040000   21.3910000  
C 16.8540000   19.7680000   21.2260000  
C 17.3550000   18.5020000   21.5680000  
C 16.4130000   17.5300000   21.9220000  
C 15.0900000   17.8840000   22.1660000  
C 15.5590000   21.5170000   21.0430000  
C 16.8260000   21.9790000   20.7100000  
N 17.6360000   20.8070000   20.7380000  
O 16.3850000   24.2580000   20.5240000  
C 17.3340000   23.2970000   20.3810000  
O 18.4830000   23.5550000   20.0180000  
O 16.8410000   16.2330000   22.1110000  
O 14.2620000   17.0190000   22.8660000  
H 14.6550000   22.0710000   21.0600000  
H 15.5570000   23.7640000   20.3980000  
H 18.6000000   20.7850000   20.5500000  
H 17.8510000   16.2730000   22.1990000  
H 14.7910000   16.1940000   23.0220000  
C 18.8270000   18.3280000   21.5460000  
C 19.4210000   17.7760000   22.7140000  
C 20.7470000   17.4380000   22.7560000  
C 21.6840000   17.5960000   21.7300000  
C 21.0600000   18.0110000   20.5120000  
C 19.7230000   18.3930000   20.4080000  
C 18.9030000   17.5480000   24.0190000  
C 19.9700000   17.0460000   24.8210000  
N 21.1410000   17.0640000   24.0580000  
O 18.8060000   16.7750000   26.6440000  
C 19.9560000   16.6080000   26.1690000  
O 20.8820000   16.1330000   26.7710000  
O 21.8050000   17.9610000   19.3740000  
O 19.2700000   18.7580000   19.1260000  
H 17.8030000   17.6850000   24.2770000  
H 18.2420000   17.1690000   25.9410000  
H 22.0650000   16.7760000   24.3450000  
H 22.5850000   17.4370000   19.6220000  
H 20.0260000   19.0310000   18.5850000  
C 23.1090000   17.1620000   21.7940000  
C 23.4520000   15.8350000   22.2130000  
C 24.7980000   15.4320000   22.3960000  
C 25.8610000   16.3550000   22.1060000  
C 25.5250000   17.6300000   21.5890000  
C 24.1700000   18.0060000   21.3640000  
C 22.6400000   14.6590000   22.4120000  
C 23.4940000   13.6490000   22.8660000  
N 24.8340000   14.1040000   22.8310000  
O 21.7690000   11.9910000   23.1760000  
C 23.0990000   12.2330000   22.9830000  
O 23.8970000   11.2840000   22.9290000  
O 26.5920000   18.4340000   21.3540000  
O 23.9420000   19.2530000   20.7930000  
H 21.5840000   14.6060000   22.1920000  
H 21.3890000   12.8790000   23.2550000  
H 25.6680000   13.5820000   23.0990000  
H 26.2300000   19.2760000   21.5420000  
H 23.0370000   19.4440000   21.0050000  
H 26.8870000   16.0640000   22.3220000  
