78
101 
C 13.0180000   14.6940000   17.1930000  
C 12.7320000   15.6660000   16.2260000  
C 13.4660000   16.8410000   16.2500000  
C 14.3220000   17.1120000   17.2260000  
C 14.6480000   16.2200000   18.2840000  
C 13.9680000   15.0140000   18.2430000  
C 13.4670000   17.9120000   15.3210000  
C 14.3470000   18.8300000   15.8520000  
N 14.9880000   18.3080000   16.9800000  
O 14.0180000   20.4160000   14.1190000  
C 14.7190000   20.1310000   15.2660000  
O 15.6450000   20.8200000   15.6560000  
O 14.3080000   14.0780000   19.2170000  
O 12.4390000   13.4410000   17.0480000  
H 12.0570000   15.4970000   15.3440000  
H 12.7640000   18.0510000   14.5170000  
H 13.5570000   19.6810000   13.7030000  
H 15.8510000   18.7050000   17.4500000  
H 14.6640000   14.5130000   20.0290000  
H 12.6700000   12.8560000   17.7930000  
C 15.7440000   16.6370000   19.2510000  
C 15.4420000   16.8910000   20.6110000  
C 16.2940000   17.4220000   21.4920000  
C 17.6280000   17.7290000   21.2450000  
C 18.0060000   17.2620000   19.9680000  
C 17.1030000   16.8610000   18.8990000  
C 14.1760000   16.8780000   21.3100000  
C 14.5060000   17.1760000   22.6410000  
N 15.7720000   17.6060000   22.7330000  
O 12.5440000   16.1620000   23.5240000  
C 13.6280000   16.8900000   23.7750000  
O 13.8540000   17.3280000   24.8670000  
O 19.3420000   17.4010000   19.6110000  
O 17.5690000   16.6530000   17.6150000  
H 13.1730000   16.5170000   20.9650000  
H 12.3730000   16.1000000   22.5750000  
H 16.2710000   17.9200000   23.5460000  
H 19.6490000   17.9360000   20.4040000  
H 16.7440000   16.4040000   17.1470000  
C 18.5570000   18.2680000   22.2740000  
C 18.9090000   17.5380000   23.4570000  
C 19.7180000   18.1640000   24.3450000  
C 20.2560000   19.4720000   24.2510000  
C 19.9140000   20.1740000   23.0640000  
C 19.1160000   19.5860000   22.0440000  
C 18.6300000   16.2640000   24.0520000  
C 19.3010000   16.1870000   25.2930000  
N 19.9590000   17.4180000   25.4770000  
O 18.5310000   13.9340000   25.7940000  
C 19.2410000   15.0200000   26.2920000  
O 19.6470000   15.0420000   27.4800000  
O 20.3820000   21.4420000   22.9000000  
O 18.8500000   20.3180000   20.9140000  
H 17.9800000   15.4870000   23.6860000  
H 18.3500000   14.2540000   24.9390000  
H 20.3990000   17.7070000   26.2870000  
H 21.0660000   21.5910000   23.5440000  
H 19.3860000   21.1720000   20.9350000  
C 21.1570000   20.0320000   25.3340000  
C 22.4980000   20.2170000   25.0830000  
C 23.4420000   20.6800000   25.9770000  
C 23.1020000   20.7950000   27.3190000  
C 21.7350000   20.5740000   27.6390000  
C 20.7530000   20.2300000   26.7020000  
C 23.1900000   20.0060000   23.8090000  
C 24.5190000   20.4730000   23.9820000  
N 24.6730000   20.8430000   25.3330000  
O 25.3120000   20.1870000   21.6830000  
C 25.6370000   20.5720000   22.9340000  
O 26.7500000   20.9460000   23.2140000  
O 21.3520000   21.0140000   28.8980000  
O 19.3740000   20.2060000   27.0430000  
H 22.6800000   19.5620000   22.8820000  
H 24.3520000   20.0110000   21.7790000  
H 25.5560000   21.0240000   25.8250000  
H 20.4350000   20.7180000   28.9700000  
H 18.8140000   19.9730000   26.2690000  
H 23.8510000   21.0260000   28.0940000  
