78
101 
C 18.8850000   20.4500000   28.7560000  
C 18.6910000   19.4850000   29.7650000  
C 18.4430000   18.1980000   29.3750000  
C 18.3810000   17.8620000   28.0400000  
C 18.6350000   18.7990000   26.9880000  
C 18.9050000   20.1500000   27.3570000  
C 18.1360000   16.9970000   30.0600000  
C 17.8640000   15.9540000   29.1110000  
N 18.1330000   16.5460000   27.8480000  
O 17.2260000   14.2830000   30.5190000  
C 17.5530000   14.5590000   29.2410000  
O 17.3380000   13.7780000   28.3570000  
O 19.1230000   21.1130000   26.4070000  
O 19.1300000   21.8110000   29.1190000  
H 18.7640000   19.6590000   30.8380000  
H 18.0630000   16.8090000   31.1330000  
H 17.1360000   15.1120000   30.9020000  
H 17.8670000   16.1940000   26.9200000  
H 18.8960000   20.7410000   25.5470000  
H 18.6310000   22.4320000   28.6060000  
C 18.5460000   18.4720000   25.4990000  
C 17.3980000   18.8100000   24.7800000  
C 17.2620000   18.4740000   23.4500000  
C 18.2860000   17.9220000   22.6510000  
C 19.4770000   17.6040000   23.3870000  
C 19.5680000   17.7850000   24.7860000  
C 16.1670000   19.4920000   25.0530000  
C 15.3190000   19.4800000   23.9470000  
N 16.1000000   18.9700000   22.9050000  
O 13.3320000   20.5100000   24.9360000  
C 13.8950000   20.0270000   23.8180000  
O 13.2450000   19.9950000   22.7770000  
O 20.4920000   16.8980000   22.8140000  
O 20.6910000   17.4390000   25.4970000  
H 15.8940000   19.7620000   26.0510000  
H 14.0950000   20.4740000   25.5180000  
H 15.8140000   18.9310000   21.9490000  
H 21.2110000   16.6680000   23.5120000  
H 20.5530000   17.8040000   26.3980000  
C 18.1270000   17.8980000   21.1530000  
C 18.6140000   18.9580000   20.4370000  
C 18.5410000   18.9010000   19.0520000  
C 17.9330000   17.8870000   18.2570000  
C 17.5190000   16.8000000   19.0130000  
C 17.7320000   16.7460000   20.4140000  
C 19.4490000   20.0690000   20.7480000  
C 19.7310000   20.7590000   19.5660000  
N 19.1650000   19.9800000   18.5570000  
O 20.8640000   22.5750000   20.6170000  
C 20.5330000   22.0220000   19.4490000  
O 20.7210000   22.5850000   18.3480000  
O 16.7790000   15.7340000   18.3820000  
O 17.3060000   15.6130000   21.0940000  
H 19.6970000   20.2950000   21.7860000  
H 20.9070000   21.8120000   21.2660000  
H 19.1750000   20.2600000   17.5600000  
H 16.6540000   15.9350000   17.4250000  
H 16.5900000   15.2600000   20.6560000  
C 17.6110000   17.8850000   16.7690000  
C 18.1410000   16.9410000   15.8620000  
C 17.8260000   16.9710000   14.5270000  
C 16.9340000   17.8880000   13.9730000  
C 16.4570000   18.9620000   14.8020000  
C 16.8280000   18.9660000   16.2060000  
C 18.9400000   15.7470000   16.0370000  
C 19.1940000   15.2300000   14.7720000  
N 18.4720000   15.9580000   13.8750000  
O 20.5490000   13.4140000   15.4240000  
C 20.0000000   14.0380000   14.3930000  
O 20.3450000   13.7480000   13.2400000  
O 15.7710000   19.9630000   14.2530000  
O 16.3660000   19.9330000   17.0730000  
H 19.2180000   15.2640000   16.9640000  
H 20.2210000   13.8350000   16.2070000  
H 18.5180000   15.9010000   12.8550000  
H 15.7770000   20.7800000   14.7440000  
H 16.2320000   19.6260000   18.0080000  
H 16.7470000   17.9370000   12.9700000  
