78
101 
C 10.8260000   19.8390000   20.5730000  
C 10.7360000   21.1300000   21.0680000  
C 11.8530000   21.7350000   21.6170000  
C 13.0150000   20.9800000   21.6960000  
C 13.1690000   19.6970000   21.2060000  
C 11.9680000   19.0830000   20.7020000  
C 12.1130000   23.0540000   22.1740000  
C 13.4640000   23.0350000   22.5770000  
N 13.9880000   21.7860000   22.2310000  
O 13.4920000   25.1560000   23.7370000  
C 14.1830000   24.1210000   23.2860000  
O 15.3390000   23.9710000   23.4510000  
O 11.9550000   17.8670000   20.1760000  
O  9.7640000   19.3500000   19.8990000  
H  9.8120000   21.7230000   20.8820000  
H 11.4680000   23.8440000   22.3680000  
H 12.6990000   25.2100000   23.1400000  
H 14.9150000   21.5340000   22.4030000  
H 12.8570000   17.5530000   20.0850000  
H 10.0110000   18.4580000   19.6350000  
C 14.4620000   19.0880000   21.1950000  
C 14.7460000   18.0610000   22.0950000  
C 16.0340000   17.6310000   22.3330000  
C 17.2000000   18.0530000   21.6330000  
C 16.9800000   19.0900000   20.7140000  
C 15.6330000   19.6420000   20.5090000  
C 13.8500000   17.2580000   22.9270000  
C 14.7430000   16.4930000   23.7050000  
N 16.0800000   16.7000000   23.3350000  
O 12.9420000   15.5390000   25.0280000  
C 14.2500000   15.6920000   24.8860000  
O 15.1090000   15.1170000   25.5570000  
O 18.0760000   19.7450000   20.2220000  
O 15.5190000   20.7980000   19.8000000  
H 12.7490000   17.2800000   22.8710000  
H 12.6830000   15.8490000   24.1450000  
H 16.9070000   16.3510000   23.7330000  
H 17.8000000   20.4810000   19.6220000  
H 14.6710000   21.2350000   19.9810000  
C 18.5390000   17.4610000   21.8880000  
C 19.1730000   16.6580000   20.8810000  
C 20.4240000   16.2200000   21.1290000  
C 21.2490000   16.3320000   22.3280000  
C 20.6070000   17.1160000   23.2840000  
C 19.2640000   17.6510000   23.1250000  
C 18.8540000   16.2470000   19.5340000  
C 19.9210000   15.3890000   19.1170000  
N 20.9490000   15.5300000   20.0440000  
O 18.8190000   14.8190000   17.1160000  
C 19.9180000   14.6790000   17.7990000  
O 20.7440000   13.9550000   17.3950000  
O 21.1840000   17.4540000   24.4630000  
O 18.8040000   18.4260000   24.1970000  
H 17.8840000   16.4320000   19.0610000  
H 18.1740000   15.1710000   17.6920000  
H 21.8850000   15.2250000   19.8740000  
H 21.9960000   16.9610000   24.5350000  
H 19.5150000   18.5660000   24.8240000  
C 22.6640000   15.8840000   22.3590000  
C 23.6930000   16.8840000   22.3090000  
C 25.0490000   16.4940000   22.3120000  
C 25.3990000   15.1470000   22.2440000  
C 24.3890000   14.1450000   22.2640000  
C 23.0580000   14.5510000   22.4020000  
C 23.6940000   18.3910000   22.2790000  
C 25.0440000   18.7790000   22.3550000  
N 25.8070000   17.6290000   22.3210000  
O 24.4860000   21.1080000   22.3100000  
C 25.4770000   20.1890000   22.2590000  
O 26.6830000   20.5200000   22.1380000  
O 24.7180000   12.7870000   22.4080000  
O 22.0730000   13.6530000   22.4180000  
H 22.7800000   19.0010000   22.1340000  
H 23.6130000   20.6490000   22.2620000  
H 26.8240000   17.6270000   22.3910000  
H 24.0570000   12.0780000   22.4510000  
H 21.2330000   14.1800000   22.5330000  
H 26.5070000   14.9260000   22.2640000  
