78
101 
C 11.7810000   19.0040000   18.0460000  
C 11.3610000   17.7160000   17.6840000  
C 12.1450000   16.6300000   18.0190000  
C 13.3470000   16.8200000   18.6890000  
C 13.7850000   18.0740000   19.1640000  
C 12.9670000   19.1650000   18.7880000  
C 12.0290000   15.1760000   17.8140000  
C 13.2040000   14.5880000   18.3740000  
N 13.9330000   15.6020000   18.9510000  
O 12.6830000   12.3240000   18.0320000  
C 13.5430000   13.1950000   18.6160000  
O 14.5910000   12.7560000   19.1500000  
O 13.3710000   20.4490000   19.1150000  
O 11.0500000   20.1140000   17.6350000  
H 10.4860000   17.4750000   17.1150000  
H 11.3060000   14.6260000   17.2940000  
H 11.9670000   12.9230000   17.8120000  
H 14.8260000   15.4870000   19.4640000  
H 14.3070000   20.5390000   19.1890000  
H 11.4360000   20.9150000   18.0670000  
C 15.0600000   18.2410000   19.8590000  
C 16.3020000   18.4770000   19.1340000  
C 17.4510000   18.5790000   19.7760000  
C 17.5890000   18.4340000   21.1690000  
C 16.4360000   18.1890000   21.9230000  
C 15.1620000   17.9100000   21.2620000  
C 16.6350000   18.7790000   17.7620000  
C 18.0390000   19.0670000   17.6930000  
N 18.5730000   18.8140000   18.9960000  
O 18.0990000   20.1180000   15.5960000  
C 18.7760000   19.6900000   16.6860000  
O 19.9460000   20.0020000   16.8060000  
O 16.6230000   17.8480000   23.2800000  
O 14.0010000   17.6920000   22.0090000  
H 16.0030000   18.8130000   16.8390000  
H 17.1770000   19.7400000   15.6850000  
H 19.5490000   18.7980000   19.1680000  
H 17.5050000   18.1680000   23.5380000  
H 14.2120000   17.7490000   22.9720000  
C 18.8760000   18.5820000   21.8390000  
C 18.9960000   19.6030000   22.8210000  
C 20.0440000   19.5800000   23.6500000  
C 21.0950000   18.6370000   23.6290000  
C 21.0590000   17.6800000   22.5930000  
C 19.8960000   17.5850000   21.7570000  
C 18.1520000   20.7650000   23.3570000  
C 18.8780000   21.2550000   24.4550000  
N 19.9930000   20.4320000   24.6830000  
O 17.2360000   22.8450000   24.9960000  
C 18.4270000   22.3190000   25.3330000  
O 19.0080000   22.5260000   26.3900000  
O 22.0320000   16.7540000   22.4870000  
O 19.7840000   16.5350000   20.9250000  
H 17.1920000   21.1620000   22.9810000  
H 16.9690000   22.3350000   24.1870000  
H 20.7650000   20.6270000   25.2960000  
H 22.8670000   17.2420000   22.6510000  
H 20.6540000   16.0490000   20.9770000  
C 22.1610000   18.7070000   24.5750000  
C 22.4950000   17.6220000   25.4380000  
C 23.5590000   17.6620000   26.2700000  
C 24.3870000   18.7910000   26.3450000  
C 24.1380000   19.8430000   25.4290000  
C 23.0270000   19.8360000   24.5890000  
C 21.6770000   16.4080000   25.6730000  
C 22.2890000   15.7570000   26.7080000  
N 23.5190000   16.4820000   26.9770000  
O 20.6900000   14.0580000   26.9410000  
C 21.8750000   14.5650000   27.4180000  
O 22.4530000   14.0080000   28.3810000  
O 25.0340000   20.8350000   25.3060000  
O 22.8250000   20.8920000   23.7240000  
H 20.8200000   15.9850000   25.1320000  
H 20.4420000   14.6270000   26.1770000  
H 24.1800000   16.1410000   27.7040000  
H 24.8400000   21.6350000   24.7170000  
H 21.9930000   20.6230000   23.3450000  
H 25.2640000   18.8100000   26.9560000  
