78
101 
C 10.6710000   19.6090000   22.7700000  
C 10.4030000   20.8090000   22.1370000  
C 11.3640000   21.3530000   21.2540000  
C 12.6160000   20.7770000   21.1570000  
C 12.9880000   19.5940000   21.8120000  
C 12.0110000   19.0640000   22.6670000  
C 11.4300000   22.5930000   20.4850000  
C 12.7930000   22.6190000   20.0280000  
N 13.4430000   21.4790000   20.3280000  
O 12.4400000   24.6280000   18.7840000  
C 13.3750000   23.7330000   19.1650000  
O 14.5680000   23.9600000   18.9480000  
O 12.2980000   17.9140000   23.3250000  
O  9.8190000   18.9720000   23.4580000  
H  9.4490000   21.2750000   22.2120000  
H 10.7580000   23.4550000   20.4250000  
H 11.6090000   24.2970000   19.1990000  
H 14.3750000   21.2390000   20.0870000  
H 13.3020000   17.7980000   23.1710000  
H 10.2920000   18.2340000   23.9390000  
C 14.4610000   19.1290000   21.7700000  
C 15.2200000   19.1370000   22.9670000  
C 16.5250000   18.6980000   22.9470000  
C 17.2500000   18.2810000   21.8090000  
C 16.5140000   18.4280000   20.5900000  
C 15.1470000   18.8040000   20.5750000  
C 14.8390000   19.2210000   24.3410000  
C 15.9870000   18.9160000   25.0980000  
N 17.0300000   18.5080000   24.2200000  
O 14.9470000   19.3120000   27.3300000  
C 16.0450000   19.0160000   26.6140000  
O 17.0250000   18.7530000   27.2640000  
O 17.1000000   18.1990000   19.3510000  
O 14.5250000   18.8140000   19.3820000  
H 13.8600000   19.4860000   24.8050000  
H 14.2900000   19.2310000   26.6480000  
H 17.8920000   18.2000000   24.4970000  
H 16.3610000   18.1430000   18.7050000  
H 13.5510000   18.6860000   19.5870000  
C 18.6830000   17.8460000   21.7850000  
C 19.0080000   16.4790000   21.7380000  
C 20.3170000   16.0650000   21.8420000  
C 21.3870000   16.9640000   22.0720000  
C 21.0980000   18.3510000   21.9670000  
C 19.7410000   18.8270000   21.9080000  
C 18.2560000   15.2410000   21.6730000  
C 19.1140000   14.1770000   21.7810000  
N 20.4220000   14.7080000   21.8550000  
O 17.5450000   12.4210000   21.8970000  
C 18.8350000   12.7060000   21.8360000  
O 19.7500000   11.8840000   22.0540000  
O 22.1740000   19.2550000   22.0360000  
O 19.3380000   20.0800000   21.7600000  
H 17.2060000   15.2270000   21.6710000  
H 17.1540000   13.3350000   21.8300000  
H 21.3280000   14.2630000   21.9880000  
H 22.9660000   18.7780000   22.3170000  
H 20.0360000   20.7320000   21.8930000  
C 22.7890000   16.3240000   22.1780000  
C 23.7930000   16.5440000   21.2140000  
C 25.0340000   15.9210000   21.3090000  
C 25.3610000   15.0580000   22.3320000  
C 24.4040000   14.8640000   23.3700000  
C 23.1930000   15.5520000   23.3160000  
C 23.8430000   17.3020000   19.9820000  
C 25.1140000   17.2090000   19.5150000  
N 25.8220000   16.3280000   20.3140000  
O 24.7990000   18.7270000   17.6990000  
C 25.6640000   17.8320000   18.3120000  
O 26.7540000   17.5850000   17.8810000  
O 24.7240000   14.0530000   24.3900000  
O 22.3190000   15.4230000   24.4180000  
H 22.9980000   17.9460000   19.7110000  
H 24.0170000   18.6350000   18.2550000  
H 26.7590000   16.0070000   20.0070000  
H 24.1490000   14.3310000   25.1750000  
H 21.5700000   15.9020000   24.1470000  
H 26.3520000   14.5800000   22.3660000  
