78
101 
C 13.0670000   19.5700000   27.2410000  
C 13.7080000   20.2060000   28.2870000  
C 14.9890000   20.6880000   28.0240000  
C 15.5530000   20.5210000   26.7810000  
C 14.9560000   19.8910000   25.6810000  
C 13.6370000   19.4730000   25.9180000  
C 15.8850000   21.3810000   28.8600000  
C 16.9750000   21.6240000   28.0390000  
N 16.8160000   21.0560000   26.8250000  
O 18.0360000   23.0070000   29.6180000  
C 18.1110000   22.4550000   28.3860000  
O 19.0540000   22.6510000   27.6420000  
O 12.8620000   18.8660000   24.9200000  
O 11.8290000   19.1730000   27.5320000  
H 13.3140000   20.4600000   29.2550000  
H 15.8170000   21.6100000   29.8460000  
H 17.1760000   22.6370000   29.9850000  
H 17.5800000   21.0290000   26.0840000  
H 13.1180000   19.3290000   24.1300000  
H 11.3740000   18.8220000   26.7780000  
C 15.7780000   19.5200000   24.4120000  
C 17.0490000   18.8470000   24.5010000  
C 17.7090000   18.5270000   23.3150000  
C 17.3160000   18.9390000   22.0140000  
C 16.1050000   19.5860000   21.9620000  
C 15.3430000   19.9200000   23.0960000  
C 17.7650000   18.2360000   25.5940000  
C 18.8190000   17.5440000   24.9700000  
N 18.7990000   17.7490000   23.5900000  
O 19.6770000   16.5070000   26.9630000  
C 19.8130000   16.6850000   25.6350000  
O 20.6660000   16.0440000   25.0350000  
O 15.6190000   20.0840000   20.7780000  
O 14.1520000   20.5140000   22.9690000  
H 17.4590000   18.2780000   26.6610000  
H 18.8850000   17.1160000   27.1590000  
H 19.5600000   17.6280000   22.9270000  
H 16.3730000   19.8090000   20.1950000  
H 13.9680000   20.6370000   22.0140000  
C 18.1010000   18.6550000   20.7850000  
C 18.4770000   17.3140000   20.4630000  
C 19.2980000   17.0410000   19.4140000  
C 19.8540000   18.0300000   18.5460000  
C 19.3030000   19.3200000   18.7150000  
C 18.5320000   19.6390000   19.8750000  
C 18.2760000   16.0490000   21.1880000  
C 19.0560000   15.1540000   20.5600000  
N 19.7200000   15.7200000   19.4650000  
O 18.9900000   13.5270000   22.2350000  
C 19.5340000   13.8490000   21.0330000  
O 20.3310000   13.1910000   20.3960000  
O 19.5500000   20.3150000   17.8160000  
O 18.3630000   20.9910000   20.0560000  
H 17.6730000   15.8360000   22.0850000  
H 18.5630000   14.3940000   22.3790000  
H 20.5570000   15.3730000   19.0490000  
H 20.0640000   19.8750000   17.0660000  
H 18.6280000   21.4170000   19.2170000  
C 20.6410000   17.5690000   17.4200000  
C 20.0390000   16.6190000   16.5180000  
C 20.7370000   16.0550000   15.5300000  
C 22.1300000   16.3080000   15.3020000  
C 22.7100000   17.2580000   16.1620000  
C 21.9680000   17.9410000   17.1740000  
C 18.7730000   16.0320000   16.5600000  
C 18.8190000   15.0710000   15.5520000  
N 20.0840000   15.0390000   14.8990000  
O 16.5330000   14.5740000   15.6630000  
C 17.6490000   14.2220000   15.1260000  
O 17.7020000   13.2750000   14.3540000  
O 24.0510000   17.4860000   16.0410000  
O 22.6920000   18.8360000   17.9250000  
H 17.8860000   16.2420000   17.1440000  
H 16.8160000   15.1800000   16.3250000  
H 20.4370000   14.3150000   14.3360000  
H 24.1320000   18.4070000   16.4800000  
H 22.1680000   18.8010000   18.7420000  
H 22.6680000   15.7130000   14.6000000  
