78
101 
C 13.6650000   16.5370000   15.9440000  
C 13.7990000   15.1300000   15.7390000  
C 14.4060000   14.4210000   16.7750000  
C 14.9290000   15.0940000   17.8430000  
C 14.9700000   16.4970000   18.0160000  
C 14.2830000   17.2410000   17.0490000  
C 14.7660000   13.0530000   16.9060000  
C 15.5120000   12.9590000   18.1010000  
N 15.7010000   14.2580000   18.6130000  
O 15.5310000   10.6350000   18.0760000  
C 16.0810000   11.7370000   18.6500000  
O 16.8990000   11.5550000   19.5640000  
O 14.1830000   18.5820000   17.1550000  
O 13.1550000   17.3520000   14.9590000  
H 13.5100000   14.6840000   14.7870000  
H 14.3750000   12.3330000   16.2380000  
H 14.8190000   10.9670000   17.4800000  
H 16.3820000   14.5100000   19.2440000  
H 14.5780000   18.8150000   18.0390000  
H 13.4960000   18.2900000   15.2560000  
C 15.7730000   17.1520000   19.0870000  
C 17.1510000   17.2840000   18.8300000  
C 17.9650000   17.6060000   19.8780000  
C 17.5810000   17.9220000   21.1600000  
C 16.1280000   17.9060000   21.4040000  
C 15.1980000   17.4430000   20.3290000  
C 17.9730000   16.9990000   17.6940000  
C 19.2940000   17.1780000   18.1040000  
N 19.2850000   17.5830000   19.4840000  
O 20.3620000   16.4010000   16.1040000  
C 20.4960000   16.8510000   17.3650000  
O 21.6080000   17.0000000   17.8560000  
O 15.6440000   18.3130000   22.6540000  
O 13.8610000   17.4460000   20.4920000  
H 17.5950000   16.5570000   16.7720000  
H 19.4240000   16.4040000   15.9830000  
H 20.0640000   17.8570000   20.0230000  
H 16.3550000   18.8670000   22.9790000  
H 13.6220000   17.4520000   21.4420000  
C 18.4920000   18.2790000   22.3140000  
C 18.4040000   19.5770000   22.7820000  
C 19.2510000   19.9450000   23.8390000  
C 20.2350000   19.1630000   24.4900000  
C 20.2810000   17.8430000   23.9480000  
C 19.4280000   17.4100000   22.8920000  
C 17.7570000   20.8260000   22.2390000  
C 18.0120000   21.7780000   23.2080000  
N 18.9280000   21.2300000   24.1690000  
O 16.8380000   23.5070000   21.9160000  
C 17.5470000   23.1860000   23.0530000  
O 17.8150000   24.0430000   23.8410000  
O 21.0380000   16.9330000   24.6350000  
O 19.4540000   16.1240000   22.4670000  
H 17.2750000   20.9120000   21.2500000  
H 16.6300000   22.6430000   21.5600000  
H 19.1440000   21.5690000   25.1340000  
H 21.5610000   17.5350000   25.2140000  
H 20.1440000   15.5820000   22.9190000  
C 21.1580000   19.5680000   25.5840000  
C 20.6350000   20.1790000   26.7430000  
C 21.4120000   20.7080000   27.6880000  
C 22.8210000   20.7450000   27.6040000  
C 23.4400000   20.1520000   26.5020000  
C 22.6110000   19.5990000   25.5000000  
C 19.2460000   20.2770000   27.1680000  
C 19.2710000   20.8580000   28.4130000  
N 20.6390000   21.0500000   28.7420000  
O 16.9080000   20.8790000   28.7410000  
C 18.1070000   21.1500000   29.2850000  
O 18.2780000   21.5510000   30.3880000  
O 24.8240000   20.2490000   26.5110000  
O 23.1240000   18.9810000   24.4070000  
H 18.3240000   19.9540000   26.6240000  
H 17.1330000   20.4970000   27.9120000  
H 20.9900000   21.3080000   29.6720000  
H 25.1660000   19.7880000   25.7360000  
H 22.5190000   19.0570000   23.6330000  
H 23.4170000   21.2350000   28.3920000  
