78
101 
C 16.8070000   11.2700000   20.4070000  
C 17.5480000   10.5340000   19.4400000  
C 18.6350000   11.2830000   18.9170000  
C 18.8740000   12.5600000   19.3020000  
C 18.2180000   13.2900000   20.2870000  
C 17.0940000   12.6050000   20.7910000  
C 19.6890000   10.8080000   18.0010000  
C 20.5120000   11.9110000   17.8840000  
N 20.0150000   13.0110000   18.6240000  
O 21.9840000   10.9120000   16.3120000  
C 21.7020000   12.0310000   16.9950000  
O 22.3610000   13.0300000   16.8350000  
O 16.1920000   13.2330000   21.6790000  
O 15.5890000   10.7900000   20.9930000  
H 17.2960000    9.5210000   19.1410000  
H 19.8190000    9.8360000   17.5750000  
H 21.5450000   10.2250000   16.8610000  
H 20.5330000   13.8750000   18.7230000  
H 16.2530000   14.1850000   21.6000000  
H 15.3590000   11.5850000   21.5780000  
C 18.5500000   14.7070000   20.6270000  
C 17.8110000   15.6890000   19.9420000  
C 17.9140000   17.0610000   20.2860000  
C 18.7700000   17.4740000   21.3360000  
C 19.6460000   16.4870000   21.9150000  
C 19.5100000   15.1200000   21.5970000  
C 16.7680000   15.7480000   18.9580000  
C 16.2330000   17.0400000   18.8490000  
N 16.9690000   17.8790000   19.6340000  
O 14.4670000   16.5340000   17.2360000  
C 15.0150000   17.4450000   18.0530000  
O 14.5000000   18.5270000   17.9440000  
O 20.6060000   16.8730000   22.8710000  
O 20.2510000   14.2640000   22.2750000  
H 16.2410000   14.9270000   18.4380000  
H 14.9550000   15.7110000   17.3270000  
H 17.0480000   18.8950000   19.7540000  
H 20.9960000   17.7600000   22.5840000  
H 20.1250000   13.4170000   21.8650000  
C 18.6790000   18.8600000   21.8620000  
C 17.5550000   19.4080000   22.5920000  
C 17.5510000   20.6870000   23.0120000  
C 18.5560000   21.6490000   22.8180000  
C 19.7320000   21.1340000   22.1980000  
C 19.8080000   19.7880000   21.7260000  
C 16.3190000   18.8330000   23.0950000  
C 15.6280000   19.8210000   23.7350000  
N 16.3930000   20.9800000   23.6870000  
O 13.7210000   18.4510000   24.3580000  
C 14.2500000   19.6840000   24.2930000  
O 13.6160000   20.6350000   24.5940000  
O 20.8480000   21.9050000   22.1840000  
O 20.9800000   19.3980000   21.1680000  
H 15.9710000   17.8370000   22.9170000  
H 14.4280000   17.8200000   24.1040000  
H 16.2640000   21.8830000   24.0380000  
H 20.6050000   22.7800000   22.2960000  
H 21.4490000   20.2380000   20.8830000  
C 18.4490000   23.0510000   23.3980000  
C 18.2000000   23.2640000   24.7520000  
C 18.1890000   24.4870000   25.2970000  
C 18.3100000   25.6700000   24.6010000  
C 18.5970000   25.5460000   23.2440000  
C 18.6870000   24.2670000   22.6080000  
C 18.2410000   22.3630000   25.8800000  
C 18.0620000   23.0990000   27.0660000  
N 17.9860000   24.4390000   26.6780000  
O 18.2350000   21.2710000   28.5930000  
C 17.9590000   22.5610000   28.4250000  
O 17.8500000   23.2990000   29.3610000  
O 18.8210000   26.7130000   22.4760000  
O 19.0780000   24.2350000   21.2870000  
H 18.2690000   21.2800000   25.8650000  
H 18.8430000   21.0230000   27.8680000  
H 17.8280000   25.2030000   27.3030000  
H 19.0510000   26.3000000   21.6050000  
H 18.8530000   23.2650000   21.0270000  
H 18.2360000   26.5910000   25.1360000  
