78
101 
C 20.3850000   12.7980000   17.1430000  
C 20.6440000   11.6450000   17.8740000  
C 20.1580000   11.5620000   19.1560000  
C 19.5160000   12.6320000   19.7390000  
C 19.4510000   13.8810000   19.1290000  
C 19.8750000   13.9720000   17.7670000  
C 20.1950000   10.4950000   20.1440000  
C 19.6330000   11.0510000   21.2720000  
N 19.2000000   12.3780000   21.0550000  
O 20.0000000    8.9500000   22.4750000  
C 19.6310000   10.2960000   22.5660000  
O 19.4240000   10.7940000   23.6450000  
O 19.6600000   15.1440000   17.0940000  
O 20.6750000   12.6970000   15.7890000  
H 21.1170000   10.8140000   17.4220000  
H 20.4540000    9.3830000   19.9850000  
H 19.9990000    8.7730000   21.5020000  
H 18.8900000   13.0320000   21.7640000  
H 18.7370000   15.4210000   17.2850000  
H 20.3890000   13.5440000   15.4230000  
C 18.8370000   15.0040000   19.9150000  
C 19.4500000   15.7280000   21.0360000  
C 18.8400000   16.7520000   21.6180000  
C 17.5980000   17.2960000   21.2740000  
C 16.9530000   16.6390000   20.1490000  
C 17.5300000   15.5040000   19.5220000  
C 20.7310000   15.5220000   21.7440000  
C 20.7900000   16.5490000   22.6820000  
N 19.6010000   17.2710000   22.6740000  
O 23.1180000   15.9570000   23.2330000  
C 22.0200000   16.7670000   23.4780000  
O 21.9300000   17.6720000   24.2840000  
O 15.6750000   16.9140000   19.8330000  
O 16.7890000   14.8670000   18.5940000  
H 21.6020000   14.9540000   21.5070000  
H 22.8180000   15.2970000   22.5900000  
H 19.6070000   18.1340000   23.1170000  
H 15.2030000   17.4900000   20.4380000  
H 15.9270000   15.3390000   18.6250000  
C 17.0670000   18.5980000   21.8360000  
C 17.8070000   19.7410000   21.6420000  
C 17.6250000   20.8570000   22.3750000  
C 16.7430000   21.0270000   23.4320000  
C 15.8340000   19.9710000   23.5510000  
C 15.9910000   18.7700000   22.7860000  
C 19.0800000   19.9530000   20.9280000  
C 19.5500000   21.2200000   21.2570000  
N 18.6090000   21.7800000   22.1360000  
O 21.5680000   21.1540000   20.0170000  
C 20.7680000   21.8730000   20.7340000  
O 20.9880000   23.0340000   21.0590000  
O 14.8300000   20.0060000   24.4560000  
O 15.1730000   17.6600000   23.0480000  
H 19.5950000   19.2850000   20.2390000  
H 21.0750000   20.3790000   19.9340000  
H 18.6670000   22.6950000   22.5640000  
H 14.7650000   20.8600000   24.9110000  
H 14.4270000   18.0650000   23.5330000  
C 16.5760000   22.2920000   24.2520000  
C 15.4470000   23.0380000   24.0040000  
C 15.1050000   24.1550000   24.7570000  
C 15.9000000   24.5820000   25.7530000  
C 17.0430000   23.8740000   26.1210000  
C 17.3630000   22.6730000   25.4160000  
C 14.4370000   22.9310000   22.9960000  
C 13.6380000   24.0280000   23.0360000  
N 14.0460000   24.7610000   24.1690000  
O 12.2430000   23.2860000   21.2540000  
C 12.5510000   24.3170000   22.1050000  
O 11.9510000   25.4150000   22.0530000  
O 17.8040000   24.2310000   27.1910000  
O 18.3880000   21.8310000   25.6960000  
H 14.3140000   22.0630000   22.3180000  
H 12.8040000   22.6010000   21.6640000  
H 13.7360000   25.6610000   24.4400000  
H 18.6190000   23.7430000   27.2290000  
H 18.3190000   21.1130000   25.0530000  
H 15.5230000   25.3630000   26.3350000  
