78
101 
C 12.8750000   19.5290000   26.8590000  
C 11.8400000   20.4150000   26.4200000  
C 12.1120000   21.0690000   25.2050000  
C 13.1870000   20.7470000   24.4070000  
C 14.1930000   19.7670000   24.7660000  
C 13.9810000   19.1640000   26.0090000  
C 11.3550000   22.0640000   24.4370000  
C 12.0380000   22.2010000   23.2220000  
N 13.2150000   21.3940000   23.2330000  
O 10.3060000   23.2920000   22.1490000  
C 11.5710000   22.9130000   22.0490000  
O 12.2800000   23.1840000   21.1080000  
O 14.8050000   18.1120000   26.4330000  
O 12.6270000   18.8590000   28.0290000  
H 10.9080000   20.5950000   26.9680000  
H 10.4380000   22.5320000   24.7740000  
H 10.0560000   22.7780000   22.8530000  
H 13.8750000   21.2980000   22.4650000  
H 15.4700000   18.0030000   25.6780000  
H 13.0760000   17.9820000   28.0090000  
C 15.3820000   19.4400000   23.8740000  
C 16.6820000   20.0150000   24.0420000  
C 17.7270000   19.6540000   23.2100000  
C 17.6450000   18.7540000   22.1680000  
C 16.2790000   18.2410000   21.8780000  
C 15.1940000   18.5020000   22.8110000  
C 17.1500000   20.8890000   25.0610000  
C 18.4970000   21.0490000   24.8750000  
N 18.9220000   20.2320000   23.7530000  
O 18.9770000   22.6430000   26.4700000  
C 19.5150000   21.7760000   25.6470000  
O 20.7290000   21.7930000   25.6110000  
O 16.1500000   17.3260000   20.8680000  
O 13.9760000   17.8550000   22.5740000  
H 16.5190000   21.2540000   25.8890000  
H 18.0460000   22.3780000   26.4550000  
H 19.7980000   20.2200000   23.3370000  
H 16.9290000   17.2680000   20.3180000  
H 14.2190000   17.2580000   21.8220000  
C 18.8340000   18.2250000   21.4440000  
C 19.2380000   16.8950000   21.5490000  
C 20.3680000   16.4320000   20.9600000  
C 21.1270000   17.1830000   20.0820000  
C 20.7290000   18.5410000   19.8410000  
C 19.5900000   19.0660000   20.5260000  
C 18.6980000   15.7600000   22.2950000  
C 19.5610000   14.6770000   22.0840000  
N 20.4750000   15.0890000   21.1060000  
O 18.6190000   13.2440000   23.6990000  
C 19.4780000   13.3500000   22.7150000  
O 20.1550000   12.4510000   22.2780000  
O 21.4460000   19.3940000   19.0780000  
O 19.2030000   20.3380000   20.3140000  
H 17.8070000   15.8450000   22.8440000  
H 17.9660000   13.9280000   23.7090000  
H 21.1820000   14.4500000   20.6880000  
H 22.0300000   18.9100000   18.4790000  
H 19.7610000   20.6040000   19.5420000  
C 22.2840000   16.6180000   19.2150000  
C 22.0340000   15.5630000   18.2800000  
C 23.1290000   15.0230000   17.5500000  
C 24.4410000   15.4740000   17.7200000  
C 24.6970000   16.4890000   18.6180000  
C 23.5930000   17.0430000   19.4010000  
C 20.8580000   14.8920000   17.8040000  
C 21.2610000   14.0370000   16.8380000  
N 22.6350000   14.0450000   16.7300000  
O 19.2280000   13.4060000   16.0630000  
C 20.5210000   13.1420000   15.9790000  
O 20.9910000   12.2650000   15.2870000  
O 25.9870000   16.9680000   18.7200000  
O 23.8630000   17.9730000   20.3440000  
H 19.9030000   15.0900000   18.1320000  
H 19.0670000   14.1870000   16.6100000  
H 23.1570000   13.4750000   16.1070000  
H 26.1610000   17.7030000   19.3360000  
H 23.0260000   18.0720000   20.8850000  
H 25.2270000   15.0040000   17.1930000  
