78
101 
C 16.7590000   14.5950000   15.6090000  
C 16.9000000   13.2290000   15.8220000  
C 17.0340000   12.7140000   17.0920000  
C 17.2470000   13.4740000   18.1220000  
C 17.1050000   14.8970000   18.0520000  
C 16.9030000   15.4540000   16.7420000  
C 17.0740000   11.3360000   17.5630000  
C 17.3660000   11.3880000   18.9420000  
N 17.4510000   12.7480000   19.2850000  
O 17.3440000    9.0810000   19.4200000  
C 17.3790000   10.2360000   19.9040000  
O 17.3660000   10.3830000   21.1290000  
O 16.8890000   16.7850000   16.5410000  
O 16.7400000   15.0720000   14.3360000  
H 16.8600000   12.5340000   14.9870000  
H 16.8060000   10.4080000   17.0460000  
H 17.4050000    9.1980000   18.4730000  
H 17.6890000   13.0940000   20.2120000  
H 17.1100000   17.1540000   17.3860000  
H 16.7220000   16.0380000   14.2950000  
C 17.3690000   15.7630000   19.2150000  
C 18.5320000   15.6900000   19.9630000  
C 18.7940000   16.5400000   21.0050000  
C 17.8630000   17.4860000   21.4250000  
C 16.6590000   17.6440000   20.6570000  
C 16.4010000   16.7400000   19.5700000  
C 19.8130000   14.9820000   19.8060000  
C 20.7180000   15.4650000   20.7410000  
N 20.0400000   16.3960000   21.5700000  
O 22.5260000   13.9410000   20.0020000  
C 22.1060000   14.9250000   20.8890000  
O 22.7470000   15.3130000   21.8530000  
O 15.6930000   18.5330000   21.0130000  
O 15.1620000   16.7870000   19.0140000  
H 20.0610000   14.3270000   18.9490000  
H 21.8720000   13.8930000   19.2590000  
H 20.5880000   16.8760000   22.2710000  
H 16.0280000   18.9240000   21.8820000  
H 14.6480000   17.2090000   19.7670000  
C 18.2550000   18.5330000   22.4330000  
C 18.6090000   19.8460000   22.1040000  
C 18.8060000   20.7510000   23.1140000  
C 18.7060000   20.5450000   24.5100000  
C 18.4290000   19.2240000   24.8650000  
C 18.2990000   18.2040000   23.8410000  
C 18.7920000   20.6200000   20.9050000  
C 19.1060000   21.9210000   21.2260000  
N 19.1280000   21.9970000   22.6680000  
O 19.3470000   22.7160000   18.8990000  
C 19.3770000   23.0100000   20.2040000  
O 19.5570000   24.1210000   20.6590000  
O 18.3840000   18.8870000   26.1900000  
O 18.2010000   16.8840000   24.1900000  
H 18.7160000   20.2000000   19.9060000  
H 19.1920000   21.7440000   19.0380000  
H 19.2260000   22.8760000   23.2200000  
H 18.8320000   19.6310000   26.6600000  
H 18.1860000   16.9150000   25.1450000  
C 18.7920000   21.6800000   25.4680000  
C 17.6950000   22.1320000   26.2250000  
C 17.8070000   23.2870000   26.9440000  
C 18.9500000   24.0870000   27.0940000  
C 20.0520000   23.5940000   26.3510000  
C 20.0130000   22.4520000   25.4890000  
C 16.2980000   21.7690000   26.1300000  
C 15.6210000   22.5900000   27.0430000  
N 16.5460000   23.5200000   27.4970000  
O 13.3990000   21.6200000   26.7980000  
C 14.1630000   22.5370000   27.4200000  
O 13.5590000   23.3740000   28.0990000  
O 21.2540000   24.2850000   26.4950000  
O 21.1790000   21.9500000   24.8380000  
H 15.8410000   21.0470000   25.4750000  
H 14.1090000   21.1070000   26.3460000  
H 16.3350000   24.3300000   28.0610000  
H 21.9130000   23.8070000   25.9340000  
H 20.9610000   21.0970000   24.4170000  
H 19.0290000   24.9290000   27.7630000  
