78
101 
C 14.4440000   22.4190000   26.7820000  
C 14.9730000   22.0790000   28.0400000  
C 15.8070000   20.9680000   28.0790000  
C 16.2100000   20.3370000   26.9690000  
C 15.8350000   20.7080000   25.6810000  
C 14.8770000   21.7590000   25.5880000  
C 16.3620000   20.2800000   29.1880000  
C 17.1440000   19.2780000   28.6900000  
N 17.0210000   19.2610000   27.2870000  
O 17.7190000   18.3380000   30.8240000  
C 17.9690000   18.3740000   29.5170000  
O 18.7630000   17.6000000   28.9650000  
O 14.3390000   22.0150000   24.3680000  
O 13.5740000   23.4590000   26.6150000  
H 14.6690000   22.5700000   28.9480000  
H 16.1150000   20.4140000   30.2160000  
H 17.2200000   19.1860000   30.8720000  
H 17.4070000   18.5940000   26.6330000  
H 14.6440000   21.3550000   23.7020000  
H 13.6320000   23.7080000   25.6970000  
C 16.3100000   19.9260000   24.4790000  
C 15.4360000   19.0810000   23.7320000  
C 15.9130000   18.4420000   22.6020000  
C 17.2450000   18.5650000   22.0680000  
C 18.1050000   19.3330000   22.8920000  
C 17.6580000   19.9980000   24.0710000  
C 13.9560000   18.7920000   23.7730000  
C 13.7610000   17.9590000   22.6270000  
N 14.9500000   17.7920000   21.9670000  
O 11.4430000   17.8500000   22.8200000  
C 12.5070000   17.4290000   22.1220000  
O 12.2780000   16.6910000   21.1410000  
O 19.4430000   19.4000000   22.6260000  
O 18.5970000   20.6450000   24.8770000  
H 13.2650000   19.2000000   24.5390000  
H 11.7760000   18.5330000   23.3680000  
H 15.2000000   16.9490000   21.4270000  
H 19.9080000   20.0300000   23.2260000  
H 18.0950000   21.1140000   25.6000000  
C 17.8290000   17.7050000   21.0190000  
C 18.5560000   18.2820000   19.9350000  
C 19.0710000   17.5330000   18.9640000  
C 19.0350000   16.1420000   18.9030000  
C 18.3900000   15.5610000   20.0470000  
C 17.7510000   16.2590000   21.1030000  
C 18.7400000   19.6300000   19.5370000  
C 19.4720000   19.5630000   18.3300000  
N 19.6400000   18.2950000   17.9510000  
O 19.8150000   21.9350000   18.2120000  
C 20.0250000   20.7490000   17.6330000  
O 20.8150000   20.6530000   16.6800000  
O 18.3510000   14.2130000   20.2120000  
O 17.3670000   15.5710000   22.2140000  
H 18.3440000   20.4870000   20.0760000  
H 19.2180000   21.8610000   18.9520000  
H 19.9970000   17.8910000   17.1010000  
H 18.7870000   13.7010000   19.5070000  
H 17.3320000   14.5800000   22.0300000  
C 19.7940000   15.2610000   17.9140000  
C 21.2210000   15.4270000   17.9700000  
C 21.9780000   14.8160000   16.9970000  
C 21.5000000   13.8740000   16.0360000  
C 20.1580000   13.4830000   16.2300000  
C 19.2910000   14.2320000   17.0110000  
C 22.0790000   16.3890000   18.5900000  
C 23.3720000   16.1620000   18.0940000  
N 23.3140000   15.2780000   17.0320000  
O 24.3620000   17.8800000   19.4670000  
C 24.5420000   16.9700000   18.4870000  
O 25.6120000   16.8740000   17.9840000  
O 19.5520000   12.5080000   15.4370000  
O 17.9540000   14.0790000   16.9630000  
H 21.7350000   17.0780000   19.4060000  
H 23.4090000   18.0110000   19.5700000  
H 24.0740000   15.1540000   16.3560000  
H 18.6250000   12.6580000   15.7040000  
H 17.5790000   14.5600000   17.7370000  
H 22.0410000   13.4010000   15.2350000  
