78
101 
C 11.1970000   20.7980000   20.8070000  
C 10.5760000   19.9440000   19.8910000  
C 11.2130000   18.7640000   19.5050000  
C 12.4560000   18.4140000   19.9660000  
C 13.1280000   19.2630000   20.8430000  
C 12.5060000   20.4860000   21.2460000  
C 10.8950000   17.7690000   18.5240000  
C 11.9530000   16.7860000   18.5530000  
N 12.8730000   17.2000000   19.5370000  
O 10.9000000   15.3510000   16.9530000  
C 11.9670000   15.5370000   17.7840000  
O 12.7530000   14.6560000   17.9130000  
O 12.9770000   21.2690000   22.2450000  
O 10.5530000   21.8820000   21.3170000  
H  9.6590000   20.2210000   19.4290000  
H  9.9480000   17.7860000   17.9680000  
H 10.5720000   16.1880000   16.8680000  
H 13.5960000   16.6630000   19.9770000  
H 13.8740000   20.9000000   22.5650000  
H 11.1390000   22.2620000   22.0170000  
C 14.5710000   19.0470000   21.2920000  
C 15.4980000   20.0490000   21.0350000  
C 16.7960000   19.8650000   21.3810000  
C 17.3050000   18.7940000   22.1400000  
C 16.2850000   17.8860000   22.5850000  
C 14.9380000   17.9810000   22.0940000  
C 15.4270000   21.3970000   20.3820000  
C 16.7240000   21.8920000   20.4040000  
N 17.5780000   20.9440000   21.0480000  
O 16.3050000   23.8990000   19.4340000  
C 17.2620000   23.1320000   19.8730000  
O 18.4040000   23.5110000   19.7570000  
O 16.6800000   16.9150000   23.4250000  
O 13.9870000   17.1660000   22.5910000  
H 14.6100000   21.9100000   19.8350000  
H 15.4560000   23.5070000   19.6430000  
H 18.5150000   21.1370000   21.4190000  
H 17.6090000   17.1220000   23.7810000  
H 14.2990000   16.6950000   23.3400000  
C 18.7530000   18.5170000   22.2390000  
C 19.4520000   18.5130000   23.4040000  
C 20.7890000   18.1660000   23.4350000  
C 21.5340000   17.6940000   22.3060000  
C 20.7630000   17.5740000   21.0420000  
C 19.4410000   18.0760000   21.0360000  
C 19.1030000   18.8360000   24.7740000  
C 20.2810000   18.5910000   25.4820000  
N 21.3390000   18.1040000   24.6760000  
O 19.4490000   19.2690000   27.6370000  
C 20.5060000   18.7430000   26.9810000  
O 21.5620000   18.4500000   27.4850000  
O 21.3100000   17.1210000   19.8820000  
O 18.9190000   18.0450000   19.7680000  
H 18.0720000   19.0450000   25.1790000  
H 18.8170000   19.4880000   26.9170000  
H 22.3400000   17.9400000   24.8990000  
H 22.3260000   17.1570000   19.8850000  
H 19.4880000   17.4020000   19.2700000  
C 22.9630000   17.2690000   22.3990000  
C 23.2930000   15.9240000   22.8030000  
C 24.6210000   15.5270000   23.0040000  
C 25.6280000   16.5310000   22.8120000  
C 25.2990000   17.8740000   22.5020000  
C 23.9830000   18.2340000   22.1900000  
C 22.4450000   14.7780000   23.0470000  
C 23.3410000   13.6840000   23.2550000  
N 24.6430000   14.2220000   23.3700000  
O 21.7970000   11.9140000   23.4960000  
C 23.0810000   12.2670000   23.4010000  
O 23.9550000   11.4450000   23.6040000  
O 26.3550000   18.7060000   22.5130000  
O 23.6970000   19.5570000   21.8980000  
H 21.4020000   14.7160000   22.8050000  
H 21.4310000   12.8030000   23.3610000  
H 25.4630000   13.6690000   23.6310000  
H 26.1230000   19.5250000   22.1150000  
H 22.7680000   19.6150000   21.6310000  
H 26.6640000   16.2610000   23.0600000  
