78
101 
C 12.0430000   18.6210000   17.3910000  
C 11.9360000   17.4730000   16.6590000  
C 12.8200000   16.4190000   16.9360000  
C 13.8180000   16.5710000   17.8510000  
C 14.0350000   17.7150000   18.6520000  
C 13.1080000   18.7720000   18.3340000  
C 12.9430000   15.1030000   16.3130000  
C 14.0070000   14.4740000   17.0180000  
N 14.4880000   15.3640000   18.0390000  
O 13.8990000   12.5910000   15.6910000  
C 14.3840000   13.0530000   16.8020000  
O 15.1200000   12.4240000   17.5560000  
O 13.2850000   19.9960000   18.8680000  
O 11.1970000   19.5960000   17.1120000  
H 11.1740000   17.2800000   15.9220000  
H 12.4870000   14.7440000   15.4070000  
H 13.5410000   13.3650000   15.1870000  
H 15.2050000   15.1720000   18.7410000  
H 13.7540000   20.0120000   19.6630000  
H 11.3620000   20.3690000   17.7530000  
C 15.0920000   17.8370000   19.6350000  
C 16.4890000   17.6420000   19.2820000  
C 17.5260000   17.7270000   20.1810000  
C 17.2330000   17.9240000   21.5380000  
C 15.8590000   18.2270000   21.8940000  
C 14.8020000   18.1010000   20.9330000  
C 17.1620000   17.4540000   18.0180000  
C 18.5690000   17.4330000   18.2660000  
N 18.7910000   17.6100000   19.6510000  
O 19.2050000   17.0250000   16.0100000  
C 19.6280000   17.1960000   17.2540000  
O 20.8260000   17.2320000   17.5300000  
O 15.5770000   18.5830000   23.2410000  
O 13.4760000   18.2070000   21.3210000  
H 16.6330000   17.3150000   17.0760000  
H 18.2560000   17.1680000   15.9970000  
H 19.6420000   17.8860000   20.0810000  
H 16.4270000   18.7540000   23.7290000  
H 13.3880000   18.0910000   22.3030000  
C 18.3980000   18.1350000   22.5760000  
C 18.4850000   19.3970000   23.1590000  
C 19.5330000   19.7010000   23.9630000  
C 20.5320000   18.8380000   24.4220000  
C 20.3880000   17.4890000   23.9900000  
C 19.3650000   17.1510000   23.0490000  
C 17.7790000   20.6200000   22.9290000  
C 18.4150000   21.6700000   23.7110000  
N 19.4740000   21.0000000   24.3300000  
O 16.7680000   23.3460000   23.5690000  
C 18.0310000   23.0350000   23.8710000  
O 18.8350000   23.8830000   24.2240000  
O 21.3910000   16.5630000   24.2860000  
O 19.2300000   15.8660000   22.6120000  
H 16.9150000   20.8360000   22.2840000  
H 16.4530000   22.5470000   23.1460000  
H 20.0660000   21.5630000   24.9320000  
H 22.2330000   17.1260000   24.3570000  
H 19.5330000   15.2030000   23.2940000  
C 21.7530000   19.3170000   25.1730000  
C 22.1400000   18.6470000   26.3700000  
C 23.2640000   19.0030000   27.0000000  
C 24.0650000   20.0240000   26.5400000  
C 23.8600000   20.5780000   25.2860000  
C 22.6700000   20.2830000   24.6320000  
C 21.5330000   17.5430000   27.0720000  
C 22.3380000   17.2590000   28.1120000  
N 23.4980000   18.0940000   28.0200000  
O 20.8680000   15.7120000   29.0440000  
C 22.1110000   16.2200000   29.1560000  
O 22.8980000   15.8780000   30.0090000  
O 24.6920000   21.4850000   24.7020000  
O 22.4380000   20.8640000   23.3680000  
H 20.6500000   16.9720000   26.7940000  
H 20.5740000   16.3900000   28.4360000  
H 24.3180000   18.0620000   28.6520000  
H 24.2220000   21.7720000   23.8590000  
H 21.5510000   20.6240000   23.0760000  
H 24.9900000   20.2490000   27.0020000  
