78
101 
C 18.2630000   13.1280000   16.3590000  
C 18.5440000   11.8510000   16.8170000  
C 18.5160000   11.6750000   18.2410000  
C 18.3570000   12.6970000   19.0270000  
C 18.0630000   14.0060000   18.7060000  
C 17.9880000   14.1370000   17.2890000  
C 18.9080000   10.5470000   19.0550000  
C 19.0470000   11.0360000   20.3530000  
N 18.5490000   12.3420000   20.3490000  
O 20.1280000    9.1330000   21.2770000  
C 19.6910000   10.3920000   21.5070000  
O 19.9950000   11.0770000   22.5120000  
O 17.9120000   15.3990000   16.6970000  
O 18.3900000   13.3460000   15.0880000  
H 18.7810000   11.0400000   16.0920000  
H 19.0990000    9.4910000   18.7840000  
H 19.9130000    9.1430000   20.3200000  
H 18.5650000   13.0440000   21.1070000  
H 18.1350000   16.1170000   17.3840000  
H 18.1450000   14.2710000   15.0320000  
C 18.0800000   15.1690000   19.6360000  
C 19.2520000   15.5800000   20.3870000  
C 19.0820000   16.6000000   21.3140000  
C 17.9480000   17.3680000   21.5230000  
C 16.8340000   17.0390000   20.7560000  
C 16.8990000   15.8950000   19.8920000  
C 20.6140000   15.1680000   20.4780000  
C 21.2280000   16.0650000   21.3130000  
N 20.2620000   16.9290000   21.8680000  
O 23.2910000   14.8600000   21.2760000  
C 22.5940000   15.9120000   21.7880000  
O 23.0510000   16.7500000   22.5840000  
O 15.5950000   17.6770000   20.9000000  
O 15.7360000   15.5980000   19.2400000  
H 21.0300000   14.2480000   20.0960000  
H 22.6790000   14.6150000   20.5560000  
H 20.2990000   17.6230000   22.5920000  
H 15.6700000   18.4080000   21.5030000  
H 15.2320000   16.3600000   19.3400000  
C 17.9260000   18.4770000   22.5570000  
C 18.7190000   19.6710000   22.4710000  
C 18.3530000   20.7150000   23.2380000  
C 17.3650000   20.8020000   24.1920000  
C 16.5540000   19.6530000   24.3320000  
C 16.8970000   18.4890000   23.6170000  
C 19.8680000   20.1460000   21.6080000  
C 20.0560000   21.4940000   21.9380000  
N 19.1150000   21.8400000   22.9650000  
O 21.8420000   22.0650000   20.4020000  
C 20.9440000   22.4900000   21.3260000  
O 20.8730000   23.7050000   21.6080000  
O 15.5300000   19.6790000   25.2590000  
O 16.2510000   17.3560000   23.9470000  
H 20.4030000   19.5710000   20.8080000  
H 21.6790000   21.1580000   20.1940000  
H 18.9830000   22.7500000   23.3810000  
H 15.4050000   20.5330000   25.7270000  
H 15.8480000   17.5620000   24.8030000  
C 17.0990000   22.0880000   24.9350000  
C 15.9090000   22.8130000   24.7090000  
C 15.5870000   24.0170000   25.2680000  
C 16.5250000   24.6200000   26.1670000  
C 17.7190000   23.9070000   26.4890000  
C 17.9960000   22.7120000   25.8870000  
C 14.8200000   22.6090000   23.7580000  
C 13.9420000   23.7340000   23.7900000  
N 14.4030000   24.5920000   24.7950000  
O 12.4460000   22.9730000   22.1000000  
C 12.7970000   24.0100000   22.8950000  
O 12.1510000   25.0760000   22.9280000  
O 18.4840000   24.2450000   27.5200000  
O 19.1470000   21.9570000   26.1020000  
H 14.7780000   21.7800000   23.0320000  
H 13.0590000   22.3070000   22.3270000  
H 14.0090000   25.4340000   25.1150000  
H 18.9390000   23.4490000   27.7500000  
H 19.1130000   21.2240000   25.4110000  
H 16.2210000   25.5710000   26.6430000  
