78
101 
C 11.1610000   16.7250000   19.0730000  
C 11.0810000   17.4020000   17.8810000  
C 12.2790000   17.9500000   17.3930000  
C 13.4350000   17.9380000   18.1540000  
C 13.5580000   17.2440000   19.3850000  
C 12.3530000   16.6590000   19.8530000  
C 12.5730000   18.7890000   16.2700000  
C 13.9370000   19.0670000   16.3740000  
N 14.4660000   18.6410000   17.6280000  
O 13.9970000   20.1450000   14.3160000  
C 14.7190000   19.8810000   15.4360000  
O 15.8250000   20.3290000   15.5460000  
O 12.4050000   15.9450000   20.9820000  
O 10.1360000   15.9440000   19.4750000  
H 10.0640000   17.5110000   17.3820000  
H 11.7960000   19.1780000   15.5520000  
H 13.1030000   19.7590000   14.5060000  
H 15.3810000   18.7190000   18.0080000  
H 13.3170000   16.0680000   21.3530000  
H 10.3530000   15.3230000   20.2070000  
C 14.8250000   17.2460000   20.2130000  
C 14.9420000   18.2550000   21.1880000  
C 16.0980000   18.4720000   21.8190000  
C 17.3430000   17.7460000   21.5540000  
C 17.2160000   16.6660000   20.6680000  
C 15.9810000   16.4350000   19.9830000  
C 14.0500000   19.3070000   21.5660000  
C 14.6580000   20.1340000   22.4590000  
N 15.9550000   19.6440000   22.5830000  
O 12.7450000   21.5790000   22.8910000  
C 14.0760000   21.3210000   23.1610000  
O 14.6570000   21.8900000   24.0440000  
O 18.3330000   15.9240000   20.4280000  
O 15.9760000   15.4680000   19.0400000  
H 13.0200000   19.3010000   21.3050000  
H 12.4350000   20.8630000   22.2880000  
H 16.6670000   20.1570000   23.0990000  
H 17.9060000   15.0490000   20.2320000  
H 15.2030000   15.5420000   18.4090000  
C 18.5890000   18.1400000   22.2710000  
C 18.8310000   17.7660000   23.5470000  
C 20.1410000   17.9790000   24.0850000  
C 21.2210000   18.5950000   23.4310000  
C 20.9350000   19.0270000   22.1230000  
C 19.6600000   18.8370000   21.5590000  
C 18.0830000   17.1930000   24.6090000  
C 18.9000000   17.0660000   25.7310000  
N 20.2170000   17.4670000   25.4120000  
O 17.0670000   16.4250000   27.1110000  
C 18.4320000   16.5230000   27.0130000  
O 19.1880000   16.1450000   27.8560000  
O 21.8740000   19.5660000   21.3410000  
O 19.4360000   19.2930000   20.2480000  
H 17.1260000   16.7200000   24.4940000  
H 16.6770000   16.9850000   26.3980000  
H 20.8760000   17.4610000   26.1420000  
H 22.6830000   19.6450000   21.8780000  
H 20.2780000   19.6260000   19.8980000  
C 22.5530000   18.7870000   24.1520000  
C 23.6780000   18.1220000   23.7620000  
C 24.8660000   18.1970000   24.4710000  
C 24.8830000   18.8690000   25.7070000  
C 23.7940000   19.5610000   26.1380000  
C 22.6190000   19.5920000   25.3190000  
C 23.9120000   17.1750000   22.7270000  
C 25.2570000   16.7590000   22.8020000  
N 25.8360000   17.4540000   23.8800000  
O 25.1740000   15.1110000   21.1050000  
C 25.9470000   15.7800000   22.0170000  
O 27.1080000   15.4770000   22.1870000  
O 23.8480000   20.0940000   27.3690000  
O 21.5420000   20.2860000   25.7610000  
H 23.2700000   16.7400000   22.0290000  
H 24.2880000   15.4750000   21.1970000  
H 26.8640000   17.4240000   23.9150000  
H 22.9610000   20.3920000   27.5770000  
H 20.8190000   20.1540000   25.0950000  
H 25.8420000   19.0020000   26.2030000  
