78
101 
C 11.0410000   17.1950000   19.7400000  
C 10.6440000   18.1020000   18.7430000  
C 11.5550000   19.0550000   18.3040000  
C 12.8220000   19.0590000   18.8060000  
C 13.3020000   18.1260000   19.7770000  
C 12.3330000   17.1510000   20.2620000  
C 11.6260000   19.9780000   17.1830000  
C 12.8730000   20.5760000   17.0960000  
N 13.6290000   19.9670000   18.1450000  
O 12.4780000   21.9200000   15.0960000  
C 13.3890000   21.4890000   16.0070000  
O 14.5860000   21.7050000   15.9530000  
O 12.7090000   16.3490000   21.3250000  
O 10.1490000   16.2860000   20.2700000  
H  9.7040000   17.9980000   18.2860000  
H 10.8530000   19.9840000   16.3020000  
H 11.6320000   21.5040000   15.2670000  
H 14.5890000   20.2690000   18.3830000  
H 13.5910000   16.5790000   21.7560000  
H 10.3340000   16.1540000   21.2540000  
C 14.7540000   18.1650000   20.2370000  
C 15.0860000   18.6200000   21.5150000  
C 16.3950000   18.5990000   21.8970000  
C 17.4850000   18.1370000   21.1150000  
C 17.1600000   17.6220000   19.8130000  
C 15.7750000   17.6630000   19.3930000  
C 14.3610000   19.2320000   22.6030000  
C 15.2930000   19.5220000   23.6170000  
N 16.5870000   19.1720000   23.1570000  
O 13.8060000   20.1870000   25.3400000  
C 15.1000000   20.0130000   24.9960000  
O 16.0510000   20.2100000   25.7810000  
O 18.1490000   17.0440000   19.0120000  
O 15.4140000   17.2070000   18.1160000  
H 13.2950000   19.3550000   22.7150000  
H 13.3230000   20.0900000   24.5040000  
H 17.5100000   19.2710000   23.5170000  
H 17.8570000   16.7210000   18.1520000  
H 14.5360000   17.5300000   17.9440000  
C 18.8750000   18.0750000   21.6920000  
C 19.1790000   17.1940000   22.7710000  
C 20.3620000   17.2520000   23.3380000  
C 21.3540000   18.2190000   23.0450000  
C 21.1050000   19.0540000   21.8990000  
C 19.8890000   18.9660000   21.2170000  
C 18.3460000   16.2910000   23.5300000  
C 19.1260000   15.9860000   24.6370000  
N 20.4310000   16.5280000   24.4340000  
O 17.5310000   14.8130000   25.7410000  
C 18.8060000   15.1970000   25.8190000  
O 19.5210000   15.0790000   26.8250000  
O 22.0030000   20.0150000   21.5900000  
O 19.6540000   19.8990000   20.2160000  
H 17.2950000   16.0960000   23.4170000  
H 17.3850000   15.0670000   24.8070000  
H 21.2080000   16.4490000   25.0610000  
H 22.7220000   20.1380000   22.2830000  
H 20.4430000   20.4910000   20.1720000  
C 22.6370000   18.3250000   23.8070000  
C 23.7490000   17.5270000   23.4600000  
C 24.9380000   17.5960000   24.1660000  
C 25.0960000   18.4980000   25.2330000  
C 24.0240000   19.2950000   25.6530000  
C 22.8810000   19.2140000   24.9450000  
C 23.8130000   16.4730000   22.4850000  
C 25.0850000   15.9500000   22.5690000  
N 25.7550000   16.5350000   23.6840000  
O 25.0160000   14.2190000   20.8620000  
C 25.7580000   14.8680000   21.7920000  
O 26.8220000   14.4560000   22.1360000  
O 24.1710000   20.2230000   26.6020000  
O 21.7680000   19.9060000   25.4220000  
H 22.9530000   16.2010000   21.8290000  
H 24.3240000   14.8770000   20.6600000  
H 26.7130000   16.3440000   23.8030000  
H 23.2640000   20.5210000   26.7620000  
H 21.0080000   19.5370000   25.0430000  
H 25.9950000   18.5900000   25.8290000  
