78
101 
C 23.1160000   12.6360000   23.0520000  
C 22.5720000   11.8240000   24.0870000  
C 21.2160000   11.8970000   24.4270000  
C 20.5670000   12.9600000   23.8320000  
C 21.0350000   13.9110000   22.8970000  
C 22.3790000   13.6880000   22.5010000  
C 20.2700000   11.1120000   25.1770000  
C 19.0980000   11.8920000   25.1250000  
N 19.2760000   13.0370000   24.3050000  
O 17.9390000   10.5860000   26.7010000  
C 17.8480000   11.6780000   25.9620000  
O 16.9180000   12.3920000   26.0150000  
O 22.9710000   14.4780000   21.5410000  
O 24.4600000   12.4630000   22.7750000  
H 23.2160000   11.1510000   24.5750000  
H 20.5000000   10.1940000   25.5900000  
H 18.7510000   10.2470000   26.3910000  
H 18.6500000   13.8050000   24.1720000  
H 22.2960000   15.0310000   21.1120000  
H 24.6250000   13.0980000   22.0670000  
C 20.2940000   15.1040000   22.4840000  
C 20.5810000   16.4290000   22.9540000  
C 19.7390000   17.4390000   22.6360000  
C 18.5400000   17.4120000   21.8650000  
C 18.2910000   16.0520000   21.3440000  
C 19.2400000   14.9620000   21.5210000  
C 21.5300000   16.8380000   23.9180000  
C 21.2730000   18.1930000   24.0470000  
N 20.1800000   18.5180000   23.2880000  
O 22.9100000   18.8150000   25.5760000  
C 21.9720000   19.2670000   24.7570000  
O 21.6190000   20.4330000   24.7820000  
O 17.2120000   15.7460000   20.5740000  
O 19.1120000   13.7530000   20.8740000  
H 22.3420000   16.3750000   24.3020000  
H 22.9960000   17.8760000   25.4890000  
H 19.7670000   19.4600000   23.2920000  
H 16.9300000   14.7640000   20.6910000  
H 19.7080000   13.1350000   21.4070000  
C 17.7530000   18.6500000   21.5730000  
C 17.5860000   19.1180000   20.2250000  
C 17.0000000   20.2710000   19.9180000  
C 16.3400000   21.1220000   20.8270000  
C 16.4120000   20.6700000   22.1790000  
C 17.1130000   19.4550000   22.5660000  
C 18.2270000   18.6320000   19.0820000  
C 17.9970000   19.6010000   18.0850000  
N 17.1290000   20.5410000   18.5700000  
O 19.5060000   18.5890000   16.4230000  
C 18.6870000   19.6030000   16.7240000  
O 18.6650000   20.5480000   15.9390000  
O 15.9440000   21.5070000   23.1150000  
O 17.1880000   19.1190000   23.8800000  
H 18.8800000   17.7110000   19.0860000  
H 19.6240000   18.0960000   17.2330000  
H 17.0100000   21.4570000   18.2440000  
H 15.9380000   22.4420000   22.8460000  
H 16.8240000   19.8550000   24.4040000  
C 15.7410000   22.3820000   20.4050000  
C 14.3890000   22.4570000   20.3110000  
C 13.7610000   23.6360000   19.9250000  
C 14.4330000   24.7650000   19.5300000  
C 15.8630000   24.7180000   19.6520000  
C 16.4700000   23.5670000   20.1190000  
C 13.3550000   21.5160000   20.6940000  
C 12.1650000   22.2480000   20.6640000  
N 12.4490000   23.5280000   20.1850000  
O 10.8390000   20.3970000   21.5360000  
C 10.8460000   21.6990000   21.0860000  
O  9.8720000   22.4320000   21.1510000  
O 16.6230000   25.7890000   19.3150000  
O 17.8520000   23.5390000   20.2180000  
H 13.4530000   20.4790000   21.0510000  
H 11.8140000   20.1840000   21.5380000  
H 11.7530000   24.2190000   20.0560000  
H 17.5190000   25.4170000   19.3110000  
H 18.0740000   22.7740000   20.7340000  
H 13.8670000   25.6670000   19.2530000  
