78
101 
C 22.5740000   12.4970000   22.2180000  
C 22.3600000   11.4260000   21.3220000  
C 21.3610000   11.5500000   20.2820000  
C 20.5870000   12.7040000   20.2510000  
C 20.7130000   13.7580000   21.1730000  
C 21.7730000   13.6610000   22.1460000  
C 20.8610000   10.6730000   19.2830000  
C 19.9330000   11.4220000   18.5800000  
N 19.6360000   12.6110000   19.2490000  
O 19.4580000    9.6220000   17.1210000  
C 19.1080000   10.8440000   17.5300000  
O 18.1040000   11.4000000   17.1000000  
O 21.9920000   14.5750000   23.1070000  
O 23.5720000   12.4170000   23.1760000  
H 23.0470000   10.5620000   21.3470000  
H 21.1070000    9.6290000   19.0660000  
H 20.3530000    9.4130000   17.3550000  
H 18.7910000   13.2200000   19.0600000  
H 21.6610000   15.4090000   22.7790000  
H 23.8050000   13.3270000   23.3760000  
C 19.7460000   14.9790000   21.1450000  
C 18.9310000   15.3090000   22.2050000  
C 18.0980000   16.3930000   22.2320000  
C 17.9820000   17.2390000   21.1450000  
C 18.7860000   16.9510000   20.0120000  
C 19.6570000   15.8420000   20.0170000  
C 18.8400000   14.6970000   23.5470000  
C 17.9890000   15.4840000   24.2780000  
N 17.5740000   16.5860000   23.4560000  
O 18.2480000   14.2760000   26.3110000  
C 17.6190000   15.2440000   25.7000000  
O 16.8160000   15.9580000   26.2840000  
O 18.6320000   17.7580000   18.9090000  
O 20.4460000   15.4950000   18.9400000  
H 19.4350000   13.8990000   23.9580000  
H 18.4730000   13.6060000   25.6110000  
H 17.2570000   17.4370000   23.8870000  
H 17.7990000   18.2600000   19.0690000  
H 20.6430000   14.5160000   18.9720000  
C 17.2270000   18.4680000   21.3840000  
C 17.5680000   19.3820000   22.4100000  
C 16.9480000   20.6420000   22.5180000  
C 15.7890000   21.0440000   21.7670000  
C 15.5150000   20.1880000   20.6320000  
C 16.1570000   18.9370000   20.4910000  
C 18.5960000   19.4420000   23.4870000  
C 18.5450000   20.7520000   23.9960000  
N 17.4490000   21.4540000   23.5170000  
O 20.6630000   20.5940000   25.0050000  
C 19.6010000   21.4320000   24.8110000  
O 19.5250000   22.5910000   25.1150000  
O 14.6800000   20.5830000   19.6930000  
O 15.9600000   18.1710000   19.3860000  
H 19.3080000   18.5890000   23.6280000  
H 20.4410000   19.7360000   24.6870000  
H 17.3590000   22.4350000   23.5740000  
H 14.6640000   21.5940000   19.6460000  
H 15.2200000   18.5470000   18.7910000  
C 14.9680000   22.2960000   22.0710000  
C 15.5990000   23.5720000   22.0540000  
C 14.9950000   24.6610000   22.4910000  
C 13.7230000   24.6200000   23.0620000  
C 12.9860000   23.4410000   22.9690000  
C 13.6370000   22.2630000   22.4050000  
C 16.9510000   23.8910000   21.7750000  
C 17.0660000   25.2560000   21.9290000  
N 15.8340000   25.7090000   22.4210000  
O 19.4860000   25.2740000   21.7630000  
C 18.3470000   25.9810000   21.7730000  
O 18.3980000   27.1940000   21.7350000  
O 11.6350000   23.3170000   23.3710000  
O 12.9520000   21.0990000   22.4260000  
H 17.7590000   23.2600000   21.3890000  
H 19.1770000   24.3710000   21.7860000  
H 15.6360000   26.7090000   22.5680000  
H 11.3170000   22.3970000   23.0950000  
H 13.4430000   20.4830000   21.9150000  
H 13.2400000   25.5450000   23.4390000  
