78
101 
C 17.7790000   16.3130000   29.0020000  
C 19.0500000   16.4970000   29.6890000  
C 20.2120000   16.8400000   28.8900000  
C 19.9890000   16.9740000   27.5620000  
C 18.7990000   16.8760000   26.8010000  
C 17.6840000   16.5160000   27.5790000  
C 21.6440000   16.9260000   29.1370000  
C 22.2290000   17.0720000   27.8350000  
N 21.1730000   17.0190000   26.9220000  
O 24.4930000   16.9320000   28.4800000  
C 23.6710000   17.2030000   27.4430000  
O 23.9900000   17.5790000   26.2950000  
O 16.5040000   16.3120000   26.9310000  
O 16.6270000   16.0270000   29.7140000  
H 19.0740000   16.4580000   30.7810000  
H 22.2030000   16.7140000   30.0480000  
H 23.9570000   16.6320000   29.2310000  
H 21.3510000   17.1900000   25.9590000  
H 16.4880000   16.7210000   26.0470000  
H 15.8760000   15.8270000   29.1750000  
C 18.7320000   17.3020000   25.3630000  
C 19.0020000   16.3990000   24.3420000  
C 18.6590000   16.6740000   23.0090000  
C 18.2230000   17.9210000   22.5850000  
C 17.9220000   18.8410000   23.6200000  
C 18.1770000   18.5700000   24.9580000  
C 19.5400000   15.0530000   24.3070000  
C 19.5180000   14.6150000   23.0030000  
N 18.9520000   15.6000000   22.2030000  
O 20.4030000   12.4010000   23.3860000  
C 19.9160000   13.3080000   22.4920000  
O 19.9710000   13.0430000   21.3220000  
O 17.3150000   19.9690000   23.2700000  
O 17.9910000   19.5840000   25.8690000  
H 19.9540000   14.4970000   25.1590000  
H 20.2090000   12.8050000   24.2480000  
H 18.7930000   15.5110000   21.2080000  
H 17.8170000   20.1890000   22.4340000  
H 18.4370000   19.3200000   26.7210000  
C 17.9070000   18.0950000   21.1790000  
C 16.5870000   18.3060000   20.6450000  
C 16.4520000   18.6400000   19.2870000  
C 17.5160000   18.8150000   18.3910000  
C 18.8270000   18.5010000   18.8900000  
C 19.0400000   18.1040000   20.2790000  
C 15.2750000   18.3660000   21.2370000  
C 14.4230000   18.6290000   20.1740000  
N 15.1380000   18.8580000   19.0400000  
O 12.4170000   18.3740000   21.3210000  
C 12.9640000   18.6070000   20.1640000  
O 12.3300000   18.8640000   19.1680000  
O 19.9600000   18.5780000   18.0890000  
O 20.3140000   17.8170000   20.7070000  
H 14.9580000   18.2800000   22.2650000  
H 13.1250000   18.2670000   21.9890000  
H 14.8190000   18.9470000   18.0780000  
H 19.6770000   18.9980000   17.2380000  
H 20.4130000   17.8450000   21.7090000  
C 17.3280000   19.1360000   16.9600000  
C 16.9460000   20.4400000   16.5680000  
C 16.9380000   20.8430000   15.2530000  
C 17.0450000   19.9590000   14.1710000  
C 17.4050000   18.6450000   14.5030000  
C 17.4560000   18.1960000   15.8900000  
C 16.5250000   21.5490000   17.3930000  
C 16.2480000   22.5840000   16.5010000  
N 16.4550000   22.1470000   15.2010000  
O 15.7780000   24.2890000   18.1110000  
C 15.8410000   23.9620000   16.8310000  
O 15.7210000   24.8400000   15.9880000  
O 17.7310000   17.7380000   13.5120000  
O 17.7670000   16.9240000   16.2040000  
H 16.4590000   21.5830000   18.4710000  
H 16.0100000   23.3810000   18.5060000  
H 16.2450000   22.6800000   14.3370000  
H 17.9060000   16.9400000   14.0040000  
H 18.0780000   16.8870000   17.1530000  
H 16.9840000   20.3060000   13.0990000  
