78
101 
C 20.8660000   12.7110000   17.4690000  
C 19.8240000   11.7890000   17.1600000  
C 18.5300000   12.0730000   17.6240000  
C 18.2970000   13.2670000   18.3170000  
C 19.2240000   14.2300000   18.6480000  
C 20.5740000   13.8960000   18.2500000  
C 17.3100000   11.3400000   17.4690000  
C 16.3270000   12.1150000   18.0850000  
N 16.9250000   13.2880000   18.6600000  
O 14.4670000   10.7050000   17.7110000  
C 14.8700000   11.8750000   18.2040000  
O 14.1840000   12.6600000   18.8360000  
O 21.5280000   14.8070000   18.5180000  
O 22.1270000   12.3950000   17.0540000  
H 19.9290000   10.9220000   16.4910000  
H 17.1250000   10.3530000   17.0100000  
H 15.1960000   10.2720000   17.3420000  
H 16.5020000   13.9580000   19.3310000  
H 21.1740000   15.4290000   19.1680000  
H 22.7070000   13.0780000   17.4350000  
C 18.8580000   15.4280000   19.5070000  
C 18.3910000   15.1820000   20.7800000  
C 17.9990000   16.2070000   21.5570000  
C 18.0680000   17.5670000   21.2260000  
C 18.5180000   17.8650000   19.9170000  
C 18.8420000   16.7830000   19.0290000  
C 18.2560000   13.9880000   21.5970000  
C 17.8570000   14.3690000   22.8910000  
N 17.7620000   15.7650000   22.8720000  
O 17.5350000   12.2190000   23.6330000  
C 17.4190000   13.4760000   24.0330000  
O 16.9100000   13.7890000   25.1110000  
O 18.6130000   19.1050000   19.4350000  
O 19.3500000   17.0360000   17.7110000  
H 18.5490000   12.9940000   21.2330000  
H 18.0350000   12.4630000   22.8320000  
H 17.2430000   16.3380000   23.5470000  
H 18.1460000   19.7440000   20.1090000  
H 19.6390000   16.1630000   17.2580000  
C 17.6810000   18.6390000   22.2000000  
C 18.6290000   19.5710000   22.6030000  
C 18.3860000   20.6820000   23.3330000  
C 17.0960000   20.9240000   23.9140000  
C 16.1660000   19.9290000   23.7100000  
C 16.4170000   18.8050000   22.8810000  
C 20.0590000   19.4890000   22.4290000  
C 20.5910000   20.5400000   23.2340000  
N 19.5500000   21.3080000   23.7600000  
O 22.8770000   20.1670000   22.6910000  
C 21.9690000   20.9370000   23.3970000  
O 22.2410000   21.9840000   24.0120000  
O 14.9790000   20.0050000   24.3840000  
O 15.3700000   17.9560000   22.6840000  
H 20.6740000   18.8220000   21.8560000  
H 22.3380000   19.5660000   22.1070000  
H 19.6250000   22.1370000   24.3070000  
H 14.9640000   20.6880000   25.0510000  
H 15.6410000   17.3470000   22.0200000  
C 16.9820000   22.0520000   24.8680000  
C 17.1050000   23.3380000   24.3360000  
C 17.1640000   24.3980000   25.1960000  
C 17.0010000   24.2530000   26.6160000  
C 16.8790000   22.9720000   27.1650000  
C 16.8750000   21.8200000   26.3110000  
C 17.2380000   23.9580000   23.0030000  
C 17.3260000   25.3400000   23.1820000  
N 17.2670000   25.6280000   24.5690000  
O 17.8260000   25.8770000   20.8860000  
C 17.7100000   26.3500000   22.1860000  
O 17.9980000   27.5010000   22.4600000  
O 16.8140000   22.9350000   28.5430000  
O 16.6770000   20.6310000   26.8620000  
H 17.4880000   23.4480000   22.1080000  
H 17.3050000   24.9990000   20.8810000  
H 17.2200000   26.5210000   25.1180000  
H 17.0850000   22.0700000   28.8350000  
H 17.2540000   19.9240000   26.4560000  
H 17.0320000   25.0810000   27.2040000  
