78
101 
C 12.3210000   19.1850000   17.1400000  
C 11.4720000   18.0570000   17.4020000  
C 11.8860000   17.0700000   18.3170000  
C 13.0420000   17.2890000   19.0020000  
C 13.9390000   18.3520000   18.7660000  
C 13.6020000   19.3100000   17.7520000  
C 11.2340000   15.8140000   18.6860000  
C 12.0380000   15.3650000   19.7430000  
N 13.1980000   16.2320000   19.8390000  
O 10.6810000   13.5620000   20.2380000  
C 11.8110000   14.2440000   20.6180000  
O 12.4760000   13.9280000   21.5790000  
O 14.5000000   20.3460000   17.5250000  
O 11.9880000   20.1000000   16.2180000  
H 10.5350000   17.9410000   16.8970000  
H 10.3340000   15.3950000   18.3470000  
H 10.5720000   14.0900000   19.4480000  
H 13.8790000   16.1330000   20.5890000  
H 15.3150000   20.1030000   17.9490000  
H 12.7470000   20.5680000   16.0630000  
C 15.2320000   18.4570000   19.4460000  
C 16.2360000   17.4390000   19.2560000  
C 17.2990000   17.3530000   20.1210000  
C 17.5010000   18.2440000   21.1940000  
C 16.6120000   19.3260000   21.3720000  
C 15.4470000   19.3840000   20.5580000  
C 16.2890000   16.2470000   18.4580000  
C 17.4830000   15.5340000   18.7900000  
N 18.1460000   16.2430000   19.8010000  
O 17.2120000   13.9790000   17.1320000  
C 17.9960000   14.3440000   18.0980000  
O 19.0340000   13.7890000   18.2750000  
O 16.8360000   20.2250000   22.3470000  
O 14.4980000   20.2810000   20.7600000  
H 15.5190000   15.9590000   17.7350000  
H 16.4720000   14.5290000   17.2880000  
H 19.0350000   16.1150000   20.3060000  
H 17.7410000   20.1710000   22.7080000  
H 13.8860000   20.1360000   20.0360000  
C 18.7630000   18.1150000   21.9940000  
C 19.8500000   19.0820000   21.9020000  
C 20.9170000   18.9820000   22.7460000  
C 21.1490000   17.9460000   23.6730000  
C 20.2460000   16.9190000   23.6770000  
C 19.0310000   17.0200000   22.8560000  
C 19.9150000   20.3930000   21.2630000  
C 21.0440000   21.0390000   21.7690000  
N 21.6880000   20.1590000   22.6200000  
O 20.6290000   23.0420000   20.6740000  
C 21.4210000   22.4110000   21.5250000  
O 22.3830000   22.9360000   22.1640000  
O 20.3440000   15.9190000   24.6520000  
O 18.0070000   16.1620000   22.9550000  
H 19.1070000   20.8210000   20.6170000  
H 19.9800000   22.4150000   20.3760000  
H 22.4660000   20.4170000   23.2170000  
H 21.1580000   16.0820000   25.2000000  
H 18.2180000   15.4690000   23.6230000  
C 22.2960000   18.0010000   24.6320000  
C 22.2930000   18.8600000   25.7460000  
C 23.2790000   18.8150000   26.7240000  
C 24.4030000   17.9790000   26.5350000  
C 24.5400000   17.2820000   25.3010000  
C 23.4100000   17.1750000   24.4420000  
C 21.2200000   19.6870000   26.3520000  
C 21.6240000   20.1710000   27.5960000  
N 22.9550000   19.7140000   27.7040000  
O 19.6370000   21.2870000   28.2000000  
C 20.8860000   21.0010000   28.5270000  
O 21.3120000   21.4140000   29.5820000  
O 25.6850000   16.5310000   25.0430000  
O 23.4920000   16.3450000   23.4260000  
H 20.1460000   19.6640000   25.9920000  
H 19.4890000   20.9490000   27.3080000  
H 23.5790000   20.0360000   28.4640000  
H 25.7180000   16.2830000   24.1470000  
H 22.6500000   16.2740000   22.9710000  
H 25.0600000   17.7420000   27.3430000  
