78
101 
C 16.2470000   16.7590000   28.9360000  
C 17.1580000   17.4700000   29.8030000  
C 18.0620000   18.3030000   29.1690000  
C 18.2500000   18.2310000   27.8450000  
C 17.4230000   17.4820000   26.9160000  
C 16.4300000   16.6920000   27.5410000  
C 19.0470000   19.2300000   29.7370000  
C 19.7650000   19.7000000   28.6610000  
N 19.2510000   19.0460000   27.4750000  
O 21.3480000   20.8450000   29.9840000  
C 20.9370000   20.5230000   28.7640000  
O 21.5540000   21.0520000   27.8550000  
O 15.4810000   16.0370000   26.7920000  
O 15.1650000   16.1380000   29.3920000  
H 17.0930000   17.4940000   30.8780000  
H 19.1690000   19.4790000   30.7940000  
H 20.7810000   20.2990000   30.5150000  
H 19.5670000   19.2510000   26.4780000  
H 15.6180000   16.2540000   25.8500000  
H 14.6160000   15.7410000   28.6720000  
C 17.5470000   17.7690000   25.4540000  
C 18.5820000   17.2120000   24.6640000  
C 18.7810000   17.5280000   23.3640000  
C 18.0320000   18.4680000   22.6690000  
C 16.9650000   19.0110000   23.3910000  
C 16.6520000   18.6710000   24.7350000  
C 19.7110000   16.4450000   25.0850000  
C 20.4420000   16.1610000   23.9410000  
N 19.9050000   16.8540000   22.8510000  
O 22.0610000   14.8220000   25.0620000  
C 21.6790000   15.3770000   23.8810000  
O 22.3210000   15.1970000   22.8530000  
O 16.1190000   19.9310000   22.8230000  
O 15.5980000   19.2660000   25.4460000  
H 19.9930000   16.1570000   26.1580000  
H 21.4560000   15.0040000   25.7980000  
H 20.2380000   16.7640000   21.9520000  
H 16.2220000   19.8490000   21.8330000  
H 15.3380000   18.8520000   26.2870000  
C 18.2110000   18.5370000   21.1610000  
C 17.2640000   17.9350000   20.3230000  
C 17.5320000   17.9520000   18.9770000  
C 18.6760000   18.4830000   18.3420000  
C 19.6900000   19.0650000   19.1630000  
C 19.4510000   19.0570000   20.5900000  
C 16.1400000   17.0330000   20.4720000  
C 15.8270000   16.5520000   19.1990000  
N 16.6260000   17.1810000   18.3060000  
O 14.1150000   15.1000000   20.0030000  
C 14.8440000   15.5340000   18.9020000  
O 14.5440000   15.0090000   17.8260000  
O 20.9280000   19.4850000   18.6900000  
O 20.4540000   19.6030000   21.3560000  
H 15.7750000   16.7080000   21.4080000  
H 14.5580000   15.5470000   20.7350000  
H 16.4950000   17.0640000   17.3090000  
H 20.8720000   19.5060000   17.7710000  
H 20.2780000   19.4710000   22.3080000  
C 18.7870000   18.3640000   16.8730000  
C 17.9410000   19.1770000   16.0760000  
C 17.9640000   19.1770000   14.7100000  
C 18.9060000   18.3570000   14.0330000  
C 19.7500000   17.5010000   14.7680000  
C 19.7600000   17.6420000   16.1520000  
C 16.8290000   20.0890000   16.4610000  
C 16.1980000   20.4760000   15.2640000  
N 17.0390000   20.0570000   14.2070000  
O 14.2150000   21.1520000   16.2530000  
C 14.8680000   21.1060000   15.0990000  
O 14.3760000   21.3770000   14.0090000  
O 20.4950000   16.5400000   14.1800000  
O 20.5660000   16.8040000   16.9140000  
H 16.5620000   20.3820000   17.4650000  
H 14.8240000   20.7750000   16.8560000  
H 16.8530000   20.2280000   13.2090000  
H 20.6890000   15.8420000   14.8390000  
H 20.3920000   16.9020000   17.8060000  
H 19.0210000   18.3210000   12.9710000  
