78
101 
C 16.3080000   21.2540000   28.4040000  
C 15.0960000   22.0190000   28.3650000  
C 14.4200000   21.9130000   27.1940000  
C 14.8620000   21.0770000   26.2070000  
C 16.0010000   20.2340000   26.2510000  
C 16.7910000   20.3720000   27.4320000  
C 13.1060000   22.4060000   26.7970000  
C 12.8930000   21.8690000   25.5350000  
N 13.9910000   21.0840000   25.1430000  
O 10.6950000   22.9980000   25.0830000  
C 11.7750000   22.2240000   24.6430000  
O 11.6600000   21.9480000   23.4560000  
O 17.9280000   19.6770000   27.5870000  
O 16.9500000   21.3950000   29.5610000  
H 14.6760000   22.6520000   29.2140000  
H 12.5270000   23.1220000   27.3390000  
H 11.0080000   23.2790000   25.9620000  
H 14.1390000   20.5460000   24.2810000  
H 17.8750000   18.9220000   26.9870000  
H 17.7210000   20.8530000   29.4320000  
C 16.4240000   19.3930000   25.0650000  
C 16.8550000   20.0240000   23.8650000  
C 17.3780000   19.3040000   22.7990000  
C 17.5400000   17.9540000   22.7720000  
C 17.1920000   17.3100000   23.9730000  
C 16.6430000   17.9850000   25.1080000  
C 16.6680000   21.3660000   23.4830000  
C 17.2910000   21.4640000   22.2550000  
N 17.6130000   20.1770000   21.7690000  
O 17.2950000   23.7610000   22.2220000  
C 17.5060000   22.6640000   21.4770000  
O 17.8170000   22.7410000   20.2950000  
O 17.2780000   15.9340000   24.0330000  
O 16.3660000   17.2530000   26.2550000  
H 16.3970000   22.1810000   24.1470000  
H 17.2450000   23.5130000   23.1590000  
H 17.9750000   19.8610000   20.9020000  
H 17.3150000   15.4460000   23.1070000  
H 16.5670000   16.3410000   26.0110000  
C 18.0420000   17.2530000   21.5610000  
C 19.3330000   17.5640000   20.9000000  
C 19.7440000   16.9050000   19.8110000  
C 19.0370000   15.8720000   19.1260000  
C 17.7910000   15.5850000   19.6760000  
C 17.2850000   16.2360000   20.8760000  
C 20.3820000   18.4230000   21.2760000  
C 21.4540000   18.2920000   20.2980000  
N 20.9960000   17.3060000   19.4370000  
O 23.1180000   19.6570000   21.1990000  
C 22.7230000   18.9480000   20.2030000  
O 23.5410000   18.7870000   19.3310000  
O 16.9790000   14.5950000   19.1570000  
O 16.0190000   15.8310000   21.3540000  
H 20.4320000   18.9920000   22.1310000  
H 22.5170000   19.6100000   21.9000000  
H 21.5260000   16.9190000   18.6800000  
H 17.3930000   14.1670000   18.4370000  
H 15.6090000   15.1570000   20.7010000  
C 19.4900000   15.1770000   17.8810000  
C 20.5330000   14.2750000   17.8610000  
C 21.0260000   13.7600000   16.6150000  
C 20.5130000   14.1240000   15.3610000  
C 19.4120000   15.0350000   15.3980000  
C 19.0320000   15.6320000   16.6120000  
C 21.3820000   13.7320000   18.8900000  
C 22.3320000   12.9040000   18.2560000  
N 22.1470000   12.9580000   16.8700000  
O 23.3560000   12.3900000   20.3130000  
C 23.2710000   12.0560000   18.9650000  
O 23.9190000   11.1200000   18.5010000  
O 18.8430000   15.2810000   14.2280000  
O 18.0810000   16.6250000   16.6370000  
H 21.3750000   13.9640000   19.9740000  
H 22.7060000   13.0780000   20.5440000  
H 22.6570000   12.4260000   16.1610000  
H 18.2820000   16.0400000   14.2580000  
H 18.2780000   17.1040000   17.4930000  
H 20.9360000   13.6670000   14.5130000  
