78
101 
C 11.1460000   20.5410000   23.3870000  
C 10.4490000   20.6180000   22.1970000  
C 10.9520000   19.9750000   21.0520000  
C 12.1710000   19.3660000   21.1290000  
C 12.9890000   19.3190000   22.2840000  
C 12.4540000   20.0490000   23.4320000  
C 10.3540000   19.6500000   19.7710000  
C 11.3110000   18.9000000   19.1010000  
N 12.5070000   18.8270000   19.8980000  
O 10.1280000   18.6060000   17.0910000  
C 11.2760000   18.3920000   17.7370000  
O 12.2650000   17.9140000   17.1940000  
O 13.1560000   20.0260000   24.6220000  
O 10.5400000   21.1410000   24.4460000  
H  9.4710000   21.0500000   22.1660000  
H  9.3620000   19.9560000   19.4250000  
H  9.5080000   18.7890000   17.8790000  
H 13.2580000   18.2530000   19.7530000  
H 14.1030000   20.2950000   24.4380000  
H 11.2370000   21.2250000   25.1400000  
C 14.3890000   18.7860000   22.3110000  
C 15.3370000   19.3620000   21.4560000  
C 16.5850000   18.8070000   21.4170000  
C 17.0850000   17.7500000   22.2330000  
C 16.1050000   17.1590000   23.1140000  
C 14.8170000   17.7400000   23.1610000  
C 15.2400000   20.4400000   20.4830000  
C 16.4760000   20.4750000   19.9490000  
N 17.2920000   19.4620000   20.4070000  
O 16.1090000   22.3900000   18.4180000  
C 16.9640000   21.4010000   18.8510000  
O 18.0380000   21.2260000   18.2950000  
O 16.4010000   16.1630000   24.0150000  
O 13.9710000   17.2450000   24.1020000  
H 14.4400000   21.2180000   20.3840000  
H 15.4760000   22.3830000   19.1010000  
H 18.2270000   19.1710000   20.2380000  
H 17.2240000   15.6380000   23.6800000  
H 13.0870000   17.6980000   24.0460000  
C 18.4480000   17.2430000   22.1020000  
C 19.6010000   18.0480000   22.3330000  
C 20.8580000   17.5250000   22.1650000  
C 21.1750000   16.2360000   21.8310000  
C 20.0380000   15.4010000   21.5880000  
C 18.6960000   15.8440000   21.7570000  
C 19.8060000   19.4720000   22.5650000  
C 21.2080000   19.7170000   22.4980000  
N 21.8250000   18.5100000   22.2620000  
O 21.1210000   22.0570000   23.0840000  
C 21.8710000   21.0040000   22.8160000  
O 23.0890000   21.0700000   22.8850000  
O 20.2400000   14.0870000   21.2650000  
O 17.8040000   14.8430000   21.5730000  
H 19.0470000   20.2330000   22.7960000  
H 20.1420000   21.7520000   23.0810000  
H 22.7770000   18.4010000   22.2470000  
H 21.2080000   14.0260000   21.2200000  
H 18.2960000   14.0530000   21.5710000  
C 22.5980000   15.7030000   21.8160000  
C 23.5150000   15.7960000   22.8900000  
C 24.8520000   15.4350000   22.7200000  
C 25.3260000   15.0370000   21.4330000  
C 24.4520000   14.9540000   20.3820000  
C 23.1550000   15.2910000   20.5690000  
C 23.3550000   16.3660000   24.1960000  
C 24.6320000   16.3350000   24.7810000  
N 25.5840000   15.7600000   23.8750000  
O 23.9330000   17.2460000   26.8580000  
C 25.0210000   16.8280000   26.1630000  
O 26.1260000   16.7690000   26.6170000  
O 24.8570000   14.4330000   19.2260000  
O 22.3150000   15.0900000   19.5610000  
H 22.3950000   16.7470000   24.6430000  
H 23.1690000   17.2000000   26.2230000  
H 26.4810000   15.3340000   24.1820000  
H 24.0320000   14.4490000   18.5930000  
H 21.4260000   15.4840000   19.7220000  
H 26.3430000   14.6940000   21.3540000  
