78
101 
C 15.6400000   17.2780000   28.9230000  
C 16.1550000   18.3200000   29.6980000  
C 17.0200000   19.1870000   29.0760000  
C 17.2880000   19.1250000   27.7290000  
C 16.7980000   18.1280000   26.8650000  
C 15.9700000   17.1700000   27.5240000  
C 17.7100000   20.3890000   29.5110000  
C 18.4880000   20.8630000   28.4380000  
N 18.1650000   20.0710000   27.3270000  
O 19.4350000   22.7290000   29.6180000  
C 19.4420000   22.0340000   28.4760000  
O 20.2050000   22.3080000   27.5230000  
O 15.3810000   16.1880000   26.7850000  
O 14.7970000   16.4630000   29.5510000  
H 15.8520000   18.4830000   30.7410000  
H 17.6640000   20.7630000   30.4900000  
H 18.7370000   22.3180000   30.1830000  
H 18.3560000   20.3630000   26.3730000  
H 15.4230000   16.5140000   25.9120000  
H 14.5080000   15.7530000   28.9050000  
C 17.1300000   18.1640000   25.4310000  
C 18.4220000   17.8570000   25.0040000  
C 18.7250000   17.6920000   23.7300000  
C 17.8210000   17.9210000   22.6420000  
C 16.5150000   18.2110000   23.0430000  
C 16.1520000   18.3430000   24.3800000  
C 19.6760000   17.4500000   25.7550000  
C 20.6090000   17.0770000   24.7890000  
N 20.0940000   17.4080000   23.5280000  
O 22.3250000   16.8940000   26.3160000  
C 22.0310000   16.7250000   25.0150000  
O 22.8250000   16.4430000   24.1460000  
O 15.4170000   18.2500000   22.1600000  
O 14.8860000   18.7920000   24.7950000  
H 19.8900000   17.5070000   26.8610000  
H 21.4830000   17.2260000   26.6930000  
H 20.4910000   17.2010000   22.6820000  
H 15.7580000   18.3790000   21.2750000  
H 14.9680000   18.6840000   25.6790000  
C 18.3070000   17.9780000   21.1810000  
C 17.7700000   17.1410000   20.2210000  
C 17.9520000   17.3390000   18.8850000  
C 18.9070000   18.1940000   18.3950000  
C 19.6130000   18.9980000   19.3580000  
C 19.2100000   19.0060000   20.7230000  
C 16.8890000   16.0050000   20.3270000  
C 16.8040000   15.4760000   19.0380000  
N 17.3540000   16.3850000   18.1140000  
O 15.7170000   13.4220000   19.7110000  
C 16.1080000   14.2050000   18.7250000  
O 15.9880000   13.8250000   17.6040000  
O 20.5940000   19.7140000   18.7990000  
O 19.8510000   19.8520000   21.6330000  
H 16.4890000   15.4990000   21.1520000  
H 15.7160000   13.9860000   20.5170000  
H 17.4300000   16.3210000   17.0760000  
H 20.5050000   19.3390000   17.9260000  
H 19.5300000   19.7370000   22.5870000  
C 19.2940000   18.1430000   16.9850000  
C 18.4110000   18.7440000   16.0420000  
C 18.6950000   18.7160000   14.6720000  
C 19.9390000   18.2790000   14.2070000  
C 20.8300000   17.7110000   15.1310000  
C 20.4990000   17.5270000   16.4950000  
C 16.9650000   18.9720000   16.1300000  
C 16.4410000   19.1680000   14.8320000  
N 17.5360000   19.0980000   13.9540000  
O 14.1600000   19.4230000   15.1990000  
C 15.1400000   19.5360000   14.2970000  
O 14.9220000   19.8080000   13.1510000  
O 22.0670000   17.3820000   14.6220000  
O 21.3190000   16.9030000   17.3350000  
H 16.3430000   18.9600000   17.0700000  
H 14.5970000   19.1050000   16.0040000  
H 17.4630000   19.3440000   12.9830000  
H 22.5150000   16.9910000   15.4100000  
H 20.9020000   16.9880000   18.2080000  
H 20.1890000   18.2170000   13.1530000  
