78
101 
C 20.2310000   11.0500000   24.0670000  
C 21.4920000   10.9000000   23.4290000  
C 22.0400000   11.9530000   22.6570000  
C 21.2980000   13.1010000   22.4730000  
C 20.0220000   13.2780000   23.0910000  
C 19.4440000   12.2130000   23.8620000  
C 23.2580000   12.0990000   21.9170000  
C 23.2060000   13.3540000   21.2740000  
N 22.0120000   14.0230000   21.7080000  
O 25.2690000   13.3520000   20.1360000  
C 24.2000000   14.1220000   20.4590000  
O 24.1800000   15.2960000   20.1240000  
O 18.1530000   12.3340000   24.3660000  
O 19.6840000    9.9970000   24.8150000  
H 22.0780000    9.9520000   23.5000000  
H 24.0230000   11.2880000   21.7490000  
H 24.9460000   12.5150000   20.5320000  
H 21.6200000   14.8860000   21.4130000  
H 17.6620000   13.0970000   23.9750000  
H 18.9500000   10.4240000   25.3030000  
C 19.2420000   14.5520000   22.9360000  
C 19.0060000   15.1340000   21.6450000  
C 18.5190000   16.3760000   21.5920000  
C 18.3040000   17.2550000   22.7210000  
C 18.4850000   16.6570000   23.9570000  
C 18.9670000   15.3760000   24.0910000  
C 19.1660000   14.6650000   20.2620000  
C 18.8470000   15.7860000   19.5010000  
N 18.4750000   16.8320000   20.3210000  
O 19.4400000   14.6730000   17.4650000  
C 18.8740000   15.7920000   17.9790000  
O 18.5070000   16.7090000   17.3190000  
O 18.1560000   17.4480000   25.0350000  
O 19.2100000   14.9880000   25.4340000  
H 19.5270000   13.7520000   19.9370000  
H 19.5980000   14.1100000   18.2010000  
H 18.0160000   17.7420000   20.0450000  
H 18.4260000   18.3850000   24.8060000  
H 18.7450000   15.6310000   25.9930000  
C 17.9450000   18.6640000   22.4760000  
C 16.8370000   19.0710000   21.7880000  
C 16.6030000   20.3500000   21.5390000  
C 17.2780000   21.4690000   22.0300000  
C 18.3700000   21.0990000   22.8330000  
C 18.6590000   19.7360000   23.0630000  
C 15.7440000   18.4130000   21.0190000  
C 14.9190000   19.4170000   20.4570000  
N 15.4330000   20.6610000   20.8240000  
O 13.5500000   17.8840000   19.3680000  
C 13.7530000   19.1770000   19.5710000  
O 13.1100000   20.0610000   19.0420000  
O 19.1430000   22.0410000   23.4470000  
O 19.6950000   19.4500000   23.8730000  
H 15.6490000   17.2900000   20.9000000  
H 14.2450000   17.3890000   19.7880000  
H 15.0800000   21.5960000   20.7000000  
H 18.6210000   22.8620000   23.5720000  
H 20.3700000   20.1020000   23.7730000  
C 16.7950000   22.8180000   21.6000000  
C 15.6530000   23.4690000   22.1980000  
C 15.3080000   24.7100000   21.7640000  
C 16.0820000   25.4870000   20.8370000  
C 17.2790000   24.9350000   20.3370000  
C 17.6140000   23.5860000   20.6760000  
C 14.6280000   22.9760000   23.0480000  
C 13.6230000   23.9380000   23.0840000  
N 14.0360000   25.0130000   22.2120000  
O 12.3290000   22.7490000   24.6800000  
C 12.3700000   23.8420000   23.8170000  
O 11.5000000   24.6900000   23.8080000  
O 18.0680000   25.5080000   19.3830000  
O 18.7050000   22.9860000   20.1820000  
H 14.6900000   22.0800000   23.7470000  
H 13.1490000   22.2940000   24.7000000  
H 13.5630000   25.8490000   22.0150000  
H 18.6860000   24.7770000   19.1550000  
H 18.7950000   22.0430000   20.4700000  
H 15.6800000   26.4520000   20.5800000  
