78
101 
C 19.2120000   16.8590000   29.2210000  
C 20.5190000   16.4620000   29.5050000  
C 21.4100000   16.3190000   28.4180000  
C 21.0140000   16.5600000   27.1150000  
C 19.7400000   17.0450000   26.7730000  
C 18.7780000   17.1630000   27.8660000  
C 22.8040000   15.9690000   28.3330000  
C 23.1430000   15.9860000   26.9740000  
N 21.9680000   16.2990000   26.2480000  
O 25.4690000   15.5580000   27.1830000  
C 24.4470000   15.7690000   26.3110000  
O 24.7150000   15.8020000   25.0900000  
O 17.4220000   17.4570000   27.6120000  
O 18.4090000   16.9740000   30.2830000  
H 20.8300000   16.2630000   30.5240000  
H 23.5930000   15.9790000   29.0490000  
H 24.9830000   15.4390000   27.9880000  
H 21.9380000   16.3710000   25.2150000  
H 17.3460000   17.2320000   26.6350000  
H 17.5330000   17.1370000   29.8770000  
C 19.2860000   17.4100000   25.3480000  
C 18.4270000   16.6240000   24.5720000  
C 17.9230000   17.0690000   23.3850000  
C 18.4070000   18.1720000   22.6630000  
C 19.2010000   19.0200000   23.4660000  
C 19.6490000   18.6770000   24.7240000  
C 17.9660000   15.2830000   24.8510000  
C 17.2600000   14.8760000   23.7010000  
N 17.1920000   16.0180000   22.8510000  
O 16.4460000   12.7580000   24.5430000  
C 16.4500000   13.6840000   23.5030000  
O 15.6510000   13.5410000   22.5500000  
O 19.5580000   20.2420000   22.9120000  
O 20.3800000   19.5440000   25.4420000  
H 18.2130000   14.5660000   25.6290000  
H 16.7620000   13.2440000   25.3070000  
H 16.7670000   15.9590000   21.9030000  
H 19.0670000   20.4620000   22.0890000  
H 20.3390000   20.3630000   24.8790000  
C 18.1110000   18.4460000   21.2410000  
C 16.8180000   18.5270000   20.7410000  
C 16.4970000   18.8160000   19.4130000  
C 17.5290000   19.0350000   18.4460000  
C 18.8670000   18.9920000   18.9090000  
C 19.1610000   18.6770000   20.2730000  
C 15.5370000   18.3470000   21.4150000  
C 14.5890000   18.4960000   20.4490000  
N 15.1540000   18.6060000   19.1950000  
O 12.6520000   18.4670000   21.8850000  
C 13.1120000   18.4820000   20.5900000  
O 12.4240000   18.2660000   19.5960000  
O 19.8860000   19.1650000   18.0090000  
O 20.4920000   18.6650000   20.6130000  
H 15.4280000   18.2070000   22.5160000  
H 13.5370000   18.5730000   22.2950000  
H 14.6230000   18.7710000   18.3170000  
H 19.4570000   19.1420000   17.0980000  
H 20.9600000   19.0290000   19.8480000  
C 17.1180000   19.2060000   16.9830000  
C 16.4260000   20.3640000   16.5660000  
C 16.2180000   20.5860000   15.2230000  
C 16.4970000   19.6160000   14.2410000  
C 17.0930000   18.4320000   14.6360000  
C 17.5640000   18.2600000   15.9870000  
C 16.0720000   21.5620000   17.2160000  
C 15.6310000   22.4690000   16.2300000  
N 15.7120000   21.8590000   15.0170000  
O 15.1120000   24.3110000   17.6210000  
C 15.2540000   23.8800000   16.3830000  
O 14.7710000   24.5490000   15.4490000  
O 17.2930000   17.5130000   13.6860000  
O 18.2870000   17.1780000   16.3580000  
H 16.2920000   21.7830000   18.2940000  
H 15.3650000   23.5720000   18.2010000  
H 15.6940000   22.3680000   14.1350000  
H 17.7250000   16.7360000   14.0890000  
H 18.1260000   16.9010000   17.2990000  
H 16.2740000   19.7400000   13.1890000  
