78
101 
C 16.5480000   17.8800000   29.2080000  
C 17.7560000   17.8170000   30.0010000  
C 18.9320000   17.9850000   29.2600000  
C 18.9320000   18.1370000   27.9080000  
C 17.7940000   18.1980000   27.0940000  
C 16.6000000   18.0640000   27.7810000  
C 20.3160000   17.9670000   29.6950000  
C 21.0900000   18.3100000   28.5670000  
N 20.2130000   18.4600000   27.4400000  
O 23.2200000   18.2170000   29.6390000  
C 22.5130000   18.5060000   28.5220000  
O 23.0890000   18.7680000   27.4830000  
O 15.4330000   17.9140000   27.0790000  
O 15.4050000   17.4990000   29.7780000  
H 17.7450000   17.4450000   30.9760000  
H 20.7130000   17.7790000   30.6590000  
H 22.6650000   18.1060000   30.3660000  
H 20.4740000   18.5240000   26.4800000  
H 15.4180000   18.5490000   26.3760000  
H 14.8490000   17.4960000   29.0000000  
C 17.9360000   18.3900000   25.5730000  
C 18.6290000   17.5510000   24.7330000  
C 18.7760000   17.7100000   23.3920000  
C 18.1320000   18.7400000   22.6640000  
C 17.3910000   19.6380000   23.4580000  
C 17.2990000   19.4920000   24.8970000  
C 19.3970000   16.3570000   25.0210000  
C 19.9420000   15.8230000   23.8340000  
N 19.5660000   16.6580000   22.8090000  
O 20.8410000   13.8090000   24.7390000  
C 20.6620000   14.5410000   23.6160000  
O 21.1230000   14.1060000   22.5610000  
O 16.7150000   20.6750000   22.7890000  
O 16.6640000   20.3790000   25.6160000  
H 19.4590000   15.8540000   25.9680000  
H 20.3210000   14.3880000   25.3460000  
H 19.8480000   16.6120000   21.8120000  
H 16.8120000   20.5980000   21.8080000  
H 16.5610000   21.2180000   25.1020000  
C 18.3190000   18.8450000   21.1980000  
C 17.7720000   17.7900000   20.4070000  
C 17.7640000   18.0420000   19.0230000  
C 18.3990000   19.0450000   18.3050000  
C 18.8990000   20.1260000   19.0990000  
C 18.8020000   20.0670000   20.5320000  
C 17.1860000   16.4410000   20.5930000  
C 16.6450000   16.0750000   19.3740000  
N 17.0900000   17.0170000   18.3670000  
O 15.4310000   14.0900000   19.9610000  
C 15.6720000   15.0580000   19.0180000  
O 14.9800000   15.0320000   17.9870000  
O 19.3890000   21.2060000   18.4180000  
O 19.3030000   21.0430000   21.2410000  
H 17.0520000   16.0210000   21.5550000  
H 16.1180000   14.2560000   20.5870000  
H 16.8490000   16.9610000   17.3440000  
H 19.3860000   20.9480000   17.4560000  
H 19.7810000   21.6520000   20.7210000  
C 18.3370000   19.0820000   16.8110000  
C 17.0380000   19.1930000   16.1410000  
C 17.0520000   19.2280000   14.7350000  
C 18.2160000   19.3170000   13.9920000  
C 19.4980000   19.2670000   14.6210000  
C 19.5410000   19.1380000   16.0350000  
C 15.6350000   19.1220000   16.5230000  
C 14.8700000   19.0150000   15.3920000  
N 15.7310000   19.2590000   14.2930000  
O 12.8280000   18.4160000   16.5210000  
C 13.3810000   18.8380000   15.3370000  
O 12.7400000   18.9050000   14.3200000  
O 20.5460000   19.2420000   13.7770000  
O 20.7210000   19.0010000   16.7390000  
H 15.2780000   19.1210000   17.5530000  
H 13.3730000   18.7390000   17.2340000  
H 15.4250000   19.2220000   13.2960000  
H 21.2900000   19.0370000   14.3660000  
H 20.5940000   18.7650000   17.6730000  
H 18.1740000   19.1250000   12.9760000  
