78
101 
C 17.8040000   14.5360000   14.9860000  
C 16.6910000   13.6990000   15.1440000  
C 15.8490000   13.9640000   16.2770000  
C 16.2060000   14.8040000   17.2350000  
C 17.2720000   15.7120000   17.0790000  
C 18.1150000   15.5430000   15.9730000  
C 14.7020000   13.2460000   16.7470000  
C 14.2990000   13.8160000   17.9690000  
N 15.2440000   14.7760000   18.2640000  
O 12.5170000   12.3090000   18.4290000  
C 13.2060000   13.4210000   18.8770000  
O 12.9630000   14.0040000   19.9040000  
O 19.1740000   16.3690000   15.7470000  
O 18.5650000   14.3660000   13.8530000  
H 16.5120000   12.8710000   14.4520000  
H 14.0310000   12.5350000   16.2120000  
H 12.8790000   12.1330000   17.5000000  
H 15.3320000   15.3940000   19.0700000  
H 19.2850000   17.0310000   16.4660000  
H 19.3850000   14.8940000   14.0040000  
C 17.6540000   16.6320000   18.2370000  
C 18.0180000   16.1220000   19.5050000  
C 17.9900000   16.9200000   20.5860000  
C 17.7930000   18.2860000   20.6280000  
C 17.4190000   18.8050000   19.4130000  
C 17.3000000   18.0040000   18.2140000  
C 18.2350000   14.7360000   19.8950000  
C 18.2310000   14.8200000   21.3120000  
N 18.1750000   16.1900000   21.7390000  
O 18.2200000   12.5110000   21.5530000  
C 18.2500000   13.6830000   22.2380000  
O 18.3350000   13.7030000   23.4540000  
O 17.3250000   20.1320000   19.2640000  
O 17.0750000   18.6930000   16.9850000  
H 18.0750000   13.8370000   19.3040000  
H 18.1480000   12.7810000   20.5900000  
H 18.2990000   16.5530000   22.6380000  
H 17.2810000   20.5820000   20.1150000  
H 17.1020000   19.6340000   17.2550000  
C 17.9250000   19.0520000   21.8780000  
C 19.0820000   19.0550000   22.6890000  
C 19.0910000   19.6360000   23.9480000  
C 18.0460000   20.2680000   24.5280000  
C 16.8660000   20.3690000   23.7090000  
C 16.8000000   19.7590000   22.4030000  
C 20.4230000   18.5400000   22.4830000  
C 21.1660000   18.8500000   23.6800000  
N 20.2910000   19.4380000   24.5980000  
O 23.2860000   18.1150000   22.9050000  
C 22.6360000   18.7920000   23.8960000  
O 23.2110000   19.3110000   24.8590000  
O 15.8130000   21.0180000   24.1230000  
O 15.5870000   19.8190000   21.6970000  
H 20.8410000   18.2180000   21.6110000  
H 22.6010000   17.8320000   22.2870000  
H 20.4870000   19.5750000   25.5320000  
H 16.0270000   21.4910000   24.9190000  
H 14.8530000   19.7770000   22.3030000  
C 18.1250000   20.8590000   25.9220000  
C 19.0240000   21.9000000   26.2300000  
C 19.2390000   22.3660000   27.4670000  
C 18.5830000   21.7870000   28.5690000  
C 17.6300000   20.8050000   28.3210000  
C 17.5260000   20.2070000   27.0320000  
C 19.8630000   22.7520000   25.4140000  
C 20.6050000   23.5760000   26.1780000  
N 20.2550000   23.3030000   27.5370000  
O 21.6040000   24.9980000   24.4620000  
C 21.4910000   24.6680000   25.7610000  
O 22.0410000   25.3190000   26.5940000  
O 16.9640000   20.2990000   29.4730000  
O 16.6830000   19.1360000   26.8000000  
H 19.8550000   22.9430000   24.3610000  
H 21.1070000   24.3680000   23.9070000  
H 20.6420000   23.7170000   28.3560000  
H 16.3080000   19.6960000   29.2790000  
H 16.6640000   18.9320000   25.8020000  
H 18.6940000   22.1380000   29.5840000  
