78
101 
C 18.1180000   19.0310000   29.3480000  
C 17.1910000   20.0220000   29.6800000  
C 16.3660000   20.4250000   28.5920000  
C 16.4990000   19.8930000   27.3600000  
C 17.4070000   18.9210000   26.9850000  
C 18.2440000   18.5280000   28.0210000  
C 15.4510000   21.5260000   28.4720000  
C 14.9670000   21.4980000   27.1670000  
N 15.7350000   20.5460000   26.4790000  
O 13.5900000   23.4350000   27.4920000  
C 13.9670000   22.4760000   26.6210000  
O 13.5300000   22.4690000   25.4960000  
O 19.1860000   17.6250000   27.7370000  
O 18.9500000   18.5590000   30.3240000  
H 17.2250000   20.5520000   30.6200000  
H 15.1600000   22.1660000   29.3080000  
H 14.0600000   23.2300000   28.3110000  
H 15.6480000   20.4550000   25.5450000  
H 19.2300000   17.6010000   26.7620000  
H 19.5920000   18.0150000   29.7780000  
C 17.6790000   18.4920000   25.5850000  
C 18.3050000   19.3550000   24.6830000  
C 18.3880000   18.9580000   23.3420000  
C 17.9650000   17.6810000   22.8270000  
C 17.2650000   16.8090000   23.7730000  
C 17.1460000   17.2180000   25.1410000  
C 18.7360000   20.7380000   24.7970000  
C 19.0520000   21.1380000   23.5090000  
N 18.9300000   19.9900000   22.6510000  
O 19.3140000   23.3810000   24.1260000  
C 19.4230000   22.5210000   23.0890000  
O 19.6690000   22.8540000   21.9580000  
O 16.7080000   15.6350000   23.3550000  
O 16.4440000   16.4060000   26.0340000  
H 18.5620000   21.3170000   25.7380000  
H 18.9680000   22.8580000   24.8490000  
H 19.2160000   19.9230000   21.6530000  
H 16.9050000   15.5190000   22.3830000  
H 16.0760000   15.6400000   25.6070000  
C 17.9080000   17.3880000   21.3830000  
C 19.0430000   17.1910000   20.5960000  
C 19.0290000   16.9700000   19.3120000  
C 17.8390000   16.9160000   18.5840000  
C 16.6180000   17.0670000   19.3250000  
C 16.6360000   17.3540000   20.7370000  
C 20.4270000   17.3090000   20.9740000  
C 21.1440000   17.1290000   19.7940000  
N 20.2650000   17.1180000   18.7090000  
O 23.1980000   17.1470000   20.9410000  
C 22.6290000   16.9950000   19.7270000  
O 23.2750000   16.7730000   18.7800000  
O 15.4040000   17.2000000   18.6510000  
O 15.4030000   17.6520000   21.3330000  
H 20.6590000   17.3530000   21.9930000  
H 22.4570000   17.2740000   21.4960000  
H 20.5460000   16.8600000   17.7580000  
H 15.6200000   17.0840000   17.7340000  
H 14.8430000   17.6080000   20.5420000  
C 17.8510000   16.8440000   17.1270000  
C 18.4620000   15.7670000   16.4240000  
C 18.5730000   15.6650000   15.0080000  
C 17.9440000   16.6450000   14.1970000  
C 17.3570000   17.7360000   14.8510000  
C 17.3360000   17.8410000   16.2480000  
C 19.0410000   14.5520000   16.9530000  
C 19.5440000   13.8760000   15.8370000  
N 19.2130000   14.4830000   14.6580000  
O 20.1090000   11.8930000   17.1380000  
C 20.0780000   12.4950000   15.9230000  
O 20.5320000   11.8570000   14.9790000  
O 16.7370000   18.7570000   14.1110000  
O 16.7740000   18.9460000   16.8100000  
H 19.0300000   14.1200000   17.9740000  
H 20.0290000   12.6570000   17.7520000  
H 19.4220000   14.1320000   13.6850000  
H 16.8660000   19.6480000   14.6230000  
H 16.6530000   18.8140000   17.8110000  
H 18.0100000   16.5470000   13.0930000  
