78
101 
C 14.1910000   17.5880000   15.5840000  
C 13.4290000   16.4330000   15.5940000  
C 13.3800000   15.7240000   16.7530000  
C 14.1230000   16.0720000   17.8740000  
C 14.9410000   17.2010000   17.9510000  
C 14.8670000   18.0040000   16.7570000  
C 12.6880000   14.4510000   17.0070000  
C 13.1160000   14.0520000   18.2830000  
N 14.0060000   15.0700000   18.8330000  
O 11.8640000   11.9240000   18.2860000  
C 12.6350000   12.8280000   19.0380000  
O 12.8370000   12.6200000   20.2730000  
O 15.7230000   19.1220000   16.5760000  
O 14.2450000   18.3590000   14.4270000  
H 12.8730000   16.1810000   14.6480000  
H 11.9350000   13.9330000   16.4010000  
H 12.0250000   12.1570000   17.3380000  
H 14.3350000   14.9860000   19.7470000  
H 16.3640000   19.0060000   17.3090000  
H 14.8880000   19.1100000   14.5060000  
C 15.6800000   17.4710000   19.2250000  
C 16.6310000   16.5220000   19.5970000  
C 17.4370000   16.8350000   20.6660000  
C 17.3350000   18.0160000   21.3980000  
C 16.3030000   18.9100000   21.1100000  
C 15.5340000   18.6850000   19.9560000  
C 17.1340000   15.2960000   19.0440000  
C 18.2100000   14.9030000   19.8530000  
N 18.4350000   15.8830000   20.8180000  
O 18.5940000   12.9000000   18.6720000  
C 19.0200000   13.7000000   19.6430000  
O 20.0200000   13.3620000   20.2940000  
O 16.1290000   20.0870000   21.8170000  
O 14.6220000   19.6400000   19.5720000  
H 16.7960000   14.8270000   18.0710000  
H 18.0690000   13.3560000   18.0990000  
H 18.9490000   15.7780000   21.7070000  
H 16.6020000   20.0020000   22.6260000  
H 14.1350000   19.4110000   18.8070000  
C 18.2010000   18.2110000   22.6100000  
C 19.3270000   19.0500000   22.5320000  
C 20.0610000   19.3370000   23.5910000  
C 19.9120000   18.8050000   24.8770000  
C 18.7980000   17.9260000   25.0010000  
C 17.9140000   17.6150000   23.9300000  
C 19.9740000   19.8170000   21.4230000  
C 21.0440000   20.5710000   21.9500000  
N 21.0500000   20.2390000   23.2550000  
O 21.9280000   21.4150000   19.9670000  
C 22.0100000   21.4410000   21.2650000  
O 22.7520000   22.1180000   21.8710000  
O 18.4310000   17.3740000   26.1880000  
O 16.8580000   16.7410000   24.1120000  
H 19.7780000   19.7940000   20.4150000  
H 21.1890000   20.9060000   19.7820000  
H 21.6730000   20.6510000   23.9240000  
H 18.8160000   17.9080000   26.8760000  
H 16.5250000   16.6070000   23.2490000  
C 20.8520000   19.1040000   26.0150000  
C 21.0640000   20.4830000   26.3540000  
C 21.9750000   20.8430000   27.3230000  
C 22.9020000   19.8560000   27.8760000  
C 22.7360000   18.5680000   27.4650000  
C 21.7670000   18.1680000   26.5530000  
C 20.4010000   21.7260000   25.9810000  
C 20.9560000   22.7270000   26.7220000  
N 21.9420000   22.1990000   27.5560000  
O 19.3980000   24.2700000   25.9640000  
C 20.5140000   24.1800000   26.6090000  
O 21.0740000   25.1540000   27.1170000  
O 23.5920000   17.6680000   27.9570000  
O 21.6080000   16.8240000   26.3030000  
H 19.6090000   21.8440000   25.2280000  
H 19.2680000   23.4240000   25.5330000  
H 22.4890000   22.7250000   28.1910000  
H 23.1280000   16.8010000   27.6500000  
H 20.8540000   16.6910000   25.7480000  
H 23.6340000   20.1410000   28.6080000  
