78
101 
C 20.4250000   12.2020000   18.1260000  
C 19.4270000   11.6860000   17.2330000  
C 18.2260000   12.3610000   17.1900000  
C 18.0130000   13.4130000   17.9710000  
C 18.9290000   14.0030000   18.9050000  
C 20.1910000   13.3890000   18.9110000  
C 17.0070000   12.0930000   16.4130000  
C 16.1960000   13.1390000   16.6910000  
N 16.7880000   13.9120000   17.7310000  
O 14.6670000   12.7860000   14.8810000  
C 15.0140000   13.5220000   15.9480000  
O 14.3730000   14.4700000   16.2710000  
O 21.2150000   13.8380000   19.7300000  
O 21.7140000   11.7190000   18.1240000  
H 19.6660000   10.8730000   16.5080000  
H 16.8340000   11.2110000   15.8330000  
H 15.4280000   12.1270000   14.7500000  
H 16.3960000   14.7680000   18.0950000  
H 21.2290000   14.8010000   19.8080000  
H 22.1160000   12.0870000   19.0040000  
C 18.5100000   15.1170000   19.7620000  
C 18.4050000   14.9670000   21.1550000  
C 18.1180000   16.0510000   21.9490000  
C 18.0260000   17.3700000   21.5230000  
C 18.1250000   17.5190000   20.0830000  
C 18.3800000   16.4380000   19.2340000  
C 18.4290000   13.8630000   22.0500000  
C 18.1920000   14.3460000   23.3270000  
N 17.9580000   15.6530000   23.2290000  
O 18.2790000   12.3250000   24.6000000  
C 18.0240000   13.6370000   24.6250000  
O 17.7260000   14.2300000   25.6130000  
O 18.1930000   18.7180000   19.5420000  
O 18.5950000   16.5880000   17.9240000  
H 18.6880000   12.8690000   21.8080000  
H 18.3670000   12.0440000   23.6330000  
H 17.9640000   16.2040000   24.1020000  
H 17.9100000   19.5010000   20.0830000  
H 19.3280000   16.0510000   17.6200000  
C 17.9450000   18.5560000   22.4380000  
C 19.0720000   19.3610000   22.7440000  
C 18.9000000   20.3880000   23.6170000  
C 17.6410000   20.7960000   24.1630000  
C 16.4940000   20.0280000   23.8300000  
C 16.6530000   18.9210000   22.9860000  
C 20.5220000   19.2790000   22.6330000  
C 21.0650000   20.3180000   23.3230000  
N 20.0480000   21.0460000   23.9880000  
O 23.3060000   19.7370000   22.8690000  
C 22.5150000   20.5540000   23.5960000  
O 22.9080000   21.4730000   24.3450000  
O 15.2540000   20.2670000   24.3870000  
O 15.5830000   18.1490000   22.7130000  
H 21.1030000   18.5700000   22.0180000  
H 22.6950000   19.2380000   22.4160000  
H 20.1780000   21.8170000   24.5990000  
H 15.3490000   21.1790000   24.7750000  
H 14.8000000   18.6630000   22.6850000  
C 17.4950000   22.0130000   25.0320000  
C 17.2550000   23.3480000   24.4910000  
C 16.9250000   24.3960000   25.2830000  
C 16.7730000   24.2500000   26.6610000  
C 17.0470000   22.9360000   27.2330000  
C 17.4730000   21.8880000   26.4060000  
C 17.1510000   23.7790000   23.0970000  
C 16.7540000   25.1280000   23.1980000  
N 16.7240000   25.5160000   24.5540000  
O 16.4820000   25.3880000   20.8510000  
C 16.4030000   26.0110000   22.0800000  
O 16.1800000   27.2360000   22.2080000  
O 17.0580000   22.8170000   28.5760000  
O 17.6820000   20.6830000   27.0010000  
H 17.2920000   23.1700000   22.1600000  
H 16.8480000   24.5070000   20.9230000  
H 16.6720000   26.4110000   24.8210000  
H 17.0490000   21.8750000   28.8180000  
H 17.8000000   19.9590000   26.2770000  
H 16.4610000   25.0990000   27.2840000  
