78
101 
C 21.3680000   13.1330000   17.6700000  
C 20.5180000   12.0590000   17.3110000  
C 19.1510000   12.1560000   17.5680000  
C 18.6640000   13.3670000   18.1080000  
C 19.4190000   14.4370000   18.5000000  
C 20.8110000   14.2880000   18.2140000  
C 18.0230000   11.3770000   17.2260000  
C 16.9010000   11.9840000   17.7020000  
N 17.2490000   13.2880000   18.2160000  
O 15.4360000   10.2470000   17.1180000  
C 15.5130000   11.5170000   17.4480000  
O 14.5160000   12.2070000   17.5350000  
O 21.5760000   15.3860000   18.6050000  
O 22.6280000   13.1630000   17.2980000  
H 20.8960000   11.2430000   16.7200000  
H 18.0490000   10.3550000   16.7730000  
H 16.2850000    9.9150000   17.1100000  
H 16.6650000   14.0660000   18.2910000  
H 21.0670000   16.0980000   18.9920000  
H 22.8370000   13.9730000   17.7950000  
C 18.9020000   15.5780000   19.3230000  
C 18.2420000   15.3950000   20.5690000  
C 17.8560000   16.4870000   21.3380000  
C 17.9270000   17.8590000   20.9080000  
C 18.3640000   17.9540000   19.5290000  
C 18.9410000   16.8960000   18.7760000  
C 17.9270000   14.2040000   21.3450000  
C 17.4940000   14.7040000   22.5770000  
N 17.5110000   16.0940000   22.6210000  
O 17.1410000   12.5550000   23.5020000  
C 17.1640000   13.9030000   23.7440000  
O 16.9000000   14.4040000   24.8640000  
O 18.3250000   19.1490000   18.9520000  
O 19.4570000   17.0210000   17.5570000  
H 18.0940000   13.1570000   21.0410000  
H 17.4590000   12.3010000   22.6040000  
H 17.3850000   16.6810000   23.4330000  
H 17.7410000   19.8180000   19.3840000  
H 19.4440000   17.9600000   17.2850000  
C 17.4840000   18.9730000   21.8140000  
C 18.1780000   19.1710000   23.0010000  
C 17.8340000   20.2520000   23.7890000  
C 16.7670000   21.1650000   23.5080000  
C 16.0410000   20.8900000   22.3130000  
C 16.3680000   19.7820000   21.4890000  
C 19.3740000   18.6290000   23.5740000  
C 19.7360000   19.3020000   24.7360000  
N 18.8030000   20.4290000   24.8040000  
O 21.5810000   17.9580000   25.3480000  
C 20.9610000   19.1420000   25.5250000  
O 21.3630000   19.9470000   26.3710000  
O 15.0070000   21.7370000   21.9620000  
O 15.6070000   19.5490000   20.3990000  
H 19.9410000   17.7810000   23.1840000  
H 20.9990000   17.3520000   24.8420000  
H 18.8890000   21.2870000   25.3970000  
H 14.9530000   22.5520000   22.5020000  
H 14.8710000   20.2580000   20.3860000  
C 16.4690000   22.2970000   24.4840000  
C 17.2640000   23.4850000   24.5010000  
C 17.0680000   24.4660000   25.4130000  
C 16.0230000   24.3520000   26.3460000  
C 15.2000000   23.1940000   26.3410000  
C 15.4370000   22.1680000   25.3640000  
C 18.4720000   23.8430000   23.8050000  
C 18.9120000   25.0530000   24.3800000  
N 17.9920000   25.4010000   25.3450000  
O 20.7260000   25.2560000   22.8130000  
C 20.1750000   25.7770000   23.9600000  
O 20.6660000   26.7040000   24.5570000  
O 14.2140000   23.0900000   27.2860000  
O 14.7570000   21.0010000   25.5330000  
H 18.9480000   23.3980000   22.9810000  
H 20.2510000   24.4520000   22.5990000  
H 17.9790000   26.2590000   25.8970000  
H 13.9840000   22.2100000   27.3480000  
H 15.2770000   20.2480000   25.1220000  
H 15.9290000   25.1880000   27.0810000  
