78
101 
C 22.2920000   12.0540000   20.3090000  
C 21.6000000   11.2770000   19.3110000  
C 20.3200000   11.7680000   18.8770000  
C 19.8630000   12.9620000   19.2990000  
C 20.4720000   13.7330000   20.2560000  
C 21.7360000   13.2540000   20.7820000  
C 19.2910000   11.3560000   17.9220000  
C 18.2980000   12.3680000   17.8780000  
N 18.6440000   13.3590000   18.7470000  
O 16.9060000   11.0640000   16.5270000  
C 17.0180000   12.2370000   17.1920000  
O 16.1310000   13.0320000   17.2030000  
O 22.5650000   14.0750000   21.5440000  
O 23.5580000   11.6020000   20.6800000  
H 21.9840000   10.3000000   18.9720000  
H 19.3230000   10.4240000   17.3610000  
H 17.7080000   10.6950000   16.7520000  
H 18.1380000   14.1610000   18.9900000  
H 22.1940000   14.9240000   21.6450000  
H 23.8980000   12.1690000   21.3840000  
C 19.8680000   15.0290000   20.6410000  
C 19.3520000   15.2380000   21.9700000  
C 18.5740000   16.3590000   22.2370000  
C 18.3550000   17.4040000   21.3370000  
C 19.1250000   17.3430000   20.1430000  
C 19.7060000   16.1430000   19.7130000  
C 19.2750000   14.3770000   23.1540000  
C 18.4100000   14.9320000   24.0080000  
N 18.0500000   16.2210000   23.5240000  
O 18.2810000   13.0880000   25.5820000  
C 17.9740000   14.4160000   25.2690000  
O 17.4130000   15.1330000   26.1180000  
O 19.0140000   18.4380000   19.2830000  
O 20.1710000   16.1530000   18.5050000  
H 19.7190000   13.3860000   23.2310000  
H 18.7040000   12.8210000   24.7240000  
H 17.5330000   16.9090000   23.9860000  
H 18.1790000   18.9060000   19.4930000  
H 20.7540000   15.3640000   18.3760000  
C 17.5700000   18.5940000   21.8370000  
C 17.9440000   19.2580000   23.0590000  
C 17.2110000   20.2980000   23.5480000  
C 16.1350000   21.0010000   22.8970000  
C 15.7220000   20.3170000   21.6730000  
C 16.4130000   19.1630000   21.1610000  
C 19.0950000   19.1990000   23.9050000  
C 19.1110000   20.3340000   24.7460000  
N 17.8730000   20.9620000   24.5420000  
O 21.1980000   20.1230000   25.8720000  
C 20.1150000   20.8940000   25.6980000  
O 19.9100000   21.9710000   26.2440000  
O 14.6800000   20.8190000   20.9210000  
O 15.9950000   18.5940000   19.9470000  
H 19.9590000   18.5240000   23.7250000  
H 20.9500000   19.3030000   25.5100000  
H 17.6050000   21.8430000   24.9070000  
H 14.1680000   21.5270000   21.4200000  
H 15.2660000   19.2240000   19.6370000  
C 15.5390000   22.3020000   23.3340000  
C 15.8490000   23.4620000   22.6540000  
C 15.4200000   24.6400000   23.1520000  
C 14.4340000   24.7260000   24.1510000  
C 13.9760000   23.5480000   24.6760000  
C 14.5960000   22.3320000   24.3430000  
C 16.7610000   23.6510000   21.5890000  
C 16.8930000   24.9980000   21.4790000  
N 16.0720000   25.6260000   22.4020000  
O 18.5650000   24.8710000   19.7580000  
C 17.8640000   25.7320000   20.5380000  
O 18.0930000   26.9040000   20.4620000  
O 13.0200000   23.6430000   25.6390000  
O 14.2000000   21.1620000   24.9650000  
H 17.3280000   22.9150000   21.0050000  
H 18.3810000   23.9470000   19.9460000  
H 16.0610000   26.5760000   22.5830000  
H 12.8600000   22.7270000   25.9410000  
H 14.4460000   20.5360000   24.3290000  
H 14.0720000   25.7560000   24.4220000  
