78
101 
C 18.9070000   10.9120000   22.3640000  
C 20.1110000   10.3610000   21.9150000  
C 20.9930000   11.3930000   21.3710000  
C 20.8010000   12.7430000   21.5110000  
C 19.6730000   13.2260000   22.1770000  
C 18.6500000   12.2640000   22.4700000  
C 22.2770000   11.2420000   20.6530000  
C 22.6920000   12.5480000   20.2880000  
N 21.6990000   13.4740000   20.7010000  
O 24.7350000   11.8530000   19.4560000  
C 23.9960000   12.9190000   19.7290000  
O 24.3570000   14.0970000   19.6260000  
O 17.4100000   12.6910000   22.9770000  
O 17.8530000   10.1230000   22.7340000  
H 20.3800000    9.3010000   21.8300000  
H 22.8350000   10.3360000   20.3690000  
H 24.2130000   11.0850000   19.6660000  
H 21.7080000   14.4560000   20.5290000  
H 17.4540000   13.6440000   22.8540000  
H 17.0340000   10.6520000   22.8110000  
C 19.3610000   14.6840000   22.1180000  
C 19.0850000   15.3990000   20.9200000  
C 18.7380000   16.7020000   20.9710000  
C 18.7900000   17.5310000   22.0820000  
C 19.0790000   16.8660000   23.2490000  
C 19.3680000   15.4510000   23.3070000  
C 19.0000000   15.0060000   19.5670000  
C 18.5630000   16.0800000   18.8490000  
N 18.4910000   17.2290000   19.7010000  
O 18.5230000   15.0400000   16.7080000  
C 18.3910000   16.1960000   17.4020000  
O 18.0040000   17.2160000   16.8710000  
O 19.1730000   17.6020000   24.4090000  
O 19.5960000   14.9090000   24.5580000  
H 19.0350000   13.9950000   19.2790000  
H 18.8230000   14.4380000   17.3710000  
H 18.3220000   18.2200000   19.3750000  
H 19.9090000   18.2750000   24.2700000  
H 19.3870000   15.6000000   25.2270000  
C 18.3270000   18.9270000   22.1210000  
C 16.9930000   19.2590000   21.8530000  
C 16.5630000   20.5770000   21.9060000  
C 17.4180000   21.6790000   22.0390000  
C 18.7550000   21.3410000   22.2370000  
C 19.2570000   20.0520000   22.2170000  
C 15.7720000   18.4250000   21.5870000  
C 14.7180000   19.3410000   21.6880000  
N 15.2060000   20.6530000   21.8430000  
O 13.0870000   17.5620000   21.7590000  
C 13.2680000   18.9030000   21.6710000  
O 12.3430000   19.7270000   21.6350000  
O 19.6450000   22.3110000   22.3700000  
O 20.5600000   19.8150000   22.2530000  
H 15.6880000   17.3250000   21.6870000  
H 13.8470000   17.1400000   22.1980000  
H 14.6660000   21.4580000   21.9650000  
H 19.1720000   23.1650000   22.3350000  
H 21.0050000   20.6210000   22.4410000  
C 16.9350000   23.0930000   22.0780000  
C 16.1640000   23.5790000   23.1610000  
C 15.7510000   24.8940000   23.2570000  
C 16.1410000   25.8520000   22.3310000  
C 16.7660000   25.3920000   21.1460000  
C 17.1030000   24.0010000   20.9690000  
C 15.7130000   22.9340000   24.4180000  
C 15.0600000   23.9130000   25.1560000  
N 15.0270000   25.1160000   24.4200000  
O 14.7430000   22.4690000   26.9710000  
C 14.5020000   23.7140000   26.5330000  
O 13.8640000   24.5710000   27.0720000  
O 17.0500000   26.2580000   20.0940000  
O 17.7460000   23.5130000   19.8510000  
H 15.6570000   21.8010000   24.6100000  
H 15.2720000   22.1730000   26.2600000  
H 14.4730000   25.8690000   24.6310000  
H 17.7020000   25.8120000   19.5010000  
H 17.9390000   22.5720000   19.9280000  
H 15.8280000   26.9130000   22.4720000  
