78
101 
C 22.6670000   12.5410000   21.2960000  
C 22.2450000   11.4090000   20.5680000  
C 20.9660000   11.5130000   19.9620000  
C 20.2260000   12.6950000   20.0770000  
C 20.5760000   13.7720000   20.8540000  
C 21.8230000   13.7200000   21.4400000  
C 20.1550000   10.5420000   19.3310000  
C 18.8890000   11.1600000   19.1500000  
N 18.9720000   12.5360000   19.4850000  
O 17.7500000    9.3860000   17.9940000  
C 17.6370000   10.6200000   18.6070000  
O 16.5960000   11.2700000   18.6050000  
O 22.2370000   14.7620000   22.2150000  
O 23.9850000   12.5320000   21.8170000  
H 22.7740000   10.5270000   20.3730000  
H 20.4520000    9.5920000   18.9840000  
H 18.6230000    8.9640000   18.2900000  
H 18.3060000   13.2520000   19.2290000  
H 21.6030000   15.4780000   22.0970000  
H 23.9920000   13.3240000   22.4050000  
C 19.7180000   15.0300000   20.8900000  
C 18.5700000   15.0170000   21.7500000  
C 17.9850000   16.1770000   22.1040000  
C 18.3550000   17.3870000   21.5780000  
C 19.4830000   17.3980000   20.6620000  
C 20.2240000   16.2410000   20.4150000  
C 17.9510000   13.9980000   22.5240000  
C 16.8830000   14.5700000   23.2510000  
N 16.9520000   15.9590000   22.9430000  
O 16.0170000   12.5390000   24.0880000  
C 15.8460000   13.8850000   23.9980000  
O 14.9180000   14.4380000   24.6270000  
O 19.9210000   18.5750000   20.0910000  
O 21.3250000   16.3040000   19.5790000  
H 18.0980000   12.9460000   22.4870000  
H 16.7460000   12.3440000   23.5170000  
H 16.2630000   16.6470000   23.3060000  
H 19.3570000   19.3020000   20.3350000  
H 21.7010000   15.4510000   19.1730000  
C 17.6740000   18.6880000   21.9100000  
C 18.3440000   19.7110000   22.6030000  
C 17.6800000   20.8950000   22.7910000  
C 16.3630000   21.1370000   22.4920000  
C 15.6710000   20.0920000   21.8030000  
C 16.3690000   18.9560000   21.4820000  
C 19.6280000   19.8510000   23.1830000  
C 19.6770000   21.0880000   23.8440000  
N 18.4270000   21.7520000   23.5890000  
O 21.8590000   20.8600000   24.7920000  
C 20.7670000   21.6440000   24.6580000  
O 20.6870000   22.8240000   25.0750000  
O 14.4230000   20.2570000   21.4420000  
O 15.7470000   18.0220000   20.7530000  
H 20.3540000   19.1010000   23.3230000  
H 21.5300000   19.9950000   24.3880000  
H 18.2270000   22.6820000   23.9060000  
H 14.1510000   21.1310000   21.4940000  
H 16.2540000   17.1890000   20.5660000  
C 15.6980000   22.4490000   22.9290000  
C 16.0590000   23.6970000   22.2540000  
C 15.2980000   24.8270000   22.5570000  
C 14.1880000   24.8200000   23.4350000  
C 13.8520000   23.6340000   24.1400000  
C 14.5880000   22.4360000   23.7890000  
C 17.0990000   24.0830000   21.2890000  
C 16.9310000   25.4650000   21.0860000  
N 15.7910000   25.9030000   21.8350000  
O 18.6500000   25.8270000   19.4700000  
C 17.7030000   26.4010000   20.2500000  
O 17.5660000   27.6170000   20.2870000  
O 12.7860000   23.5880000   25.0020000  
O 14.3160000   21.2960000   24.4080000  
H 17.9590000   23.5320000   20.9170000  
H 18.4720000   24.8680000   19.4630000  
H 15.3400000   26.7890000   21.8360000  
H 12.6220000   22.6020000   25.0550000  
H 15.0650000   20.6960000   24.2260000  
H 13.6060000   25.7140000   23.5300000  
