78
101 
C 20.6660000   15.3360000   28.1310000  
C 21.9220000   14.6940000   28.0020000  
C 22.4470000   14.5490000   26.7390000  
C 21.8670000   15.0750000   25.6850000  
C 20.7040000   15.8460000   25.6920000  
C 20.0570000   15.8800000   26.9960000  
C 23.6170000   13.8120000   26.2530000  
C 23.6500000   14.0430000   24.8950000  
N 22.6510000   14.9520000   24.5590000  
O 25.8140000   13.1160000   24.5460000  
C 24.7910000   13.7640000   23.9580000  
O 24.8550000   14.1490000   22.7920000  
O 18.8730000   16.6060000   27.1360000  
O 20.0660000   15.5170000   29.2710000  
H 22.4710000   14.1630000   28.8270000  
H 24.3390000   13.2700000   26.8470000  
H 25.6580000   12.8950000   25.4470000  
H 22.4260000   15.5010000   23.7110000  
H 18.5890000   17.0940000   26.3930000  
H 19.3220000   16.1060000   29.1320000  
C 20.1400000   16.5170000   24.4690000  
C 18.7900000   16.2300000   24.0720000  
C 18.2080000   16.7680000   22.9880000  
C 18.7720000   17.6650000   22.0920000  
C 20.1480000   17.9300000   22.3820000  
C 20.8380000   17.3700000   23.5330000  
C 17.8970000   15.2950000   24.6700000  
C 16.7750000   15.3710000   23.8240000  
N 16.9850000   16.2410000   22.7590000  
O 15.5380000   13.7220000   24.8890000  
C 15.4960000   14.6450000   23.9350000  
O 14.5770000   14.8650000   23.1570000  
O 20.8090000   18.9740000   21.7800000  
O 22.0910000   17.8690000   23.7670000  
H 18.0740000   14.6830000   25.5760000  
H 16.4380000   13.7690000   25.2400000  
H 16.4410000   16.3600000   21.8970000  
H 20.3420000   19.3530000   21.0110000  
H 22.2010000   18.5200000   23.0340000  
C 18.0930000   18.2760000   20.9020000  
C 16.7810000   18.8120000   21.0200000  
C 16.0560000   19.2990000   19.9770000  
C 16.5570000   19.3160000   18.6200000  
C 17.8480000   18.7990000   18.4280000  
C 18.5700000   18.2970000   19.5630000  
C 15.8450000   19.0390000   22.1040000  
C 14.7180000   19.7680000   21.6990000  
N 14.8530000   19.8900000   20.2870000  
O 13.6600000   19.7060000   23.7960000  
C 13.4870000   20.1010000   22.5460000  
O 12.4340000   20.5750000   22.1370000  
O 18.4050000   18.8210000   17.2170000  
O 19.7910000   17.7290000   19.2670000  
H 16.0200000   18.7320000   23.1330000  
H 14.5930000   19.3010000   23.8810000  
H 14.1710000   20.3440000   19.7320000  
H 18.1310000   19.7260000   16.9140000  
H 19.8370000   17.4740000   18.3550000  
C 15.8030000   20.0620000   17.5340000  
C 15.8370000   21.4470000   17.6520000  
C 15.0220000   22.2490000   16.9160000  
C 14.2290000   21.7440000   15.8750000  
C 14.1390000   20.3270000   15.7430000  
C 14.8910000   19.4970000   16.6630000  
C 16.5620000   22.3710000   18.5900000  
C 16.1780000   23.6490000   18.2530000  
N 15.1870000   23.5950000   17.2850000  
O 17.7270000   24.6860000   19.6740000  
C 16.7180000   24.8450000   18.8670000  
O 16.3120000   25.9800000   18.6400000  
O 13.3080000   19.8100000   14.7490000  
O 14.7420000   18.1430000   16.5540000  
H 17.1840000   21.9660000   19.3780000  
H 17.7820000   23.6870000   19.7940000  
H 14.5880000   24.2560000   16.7890000  
H 13.1600000   18.8460000   14.8220000  
H 15.1050000   17.8800000   17.3720000  
H 13.6870000   22.3790000   15.1490000  
