78
101 
C 11.9340000   20.4770000   24.9620000  
C 10.9770000   20.8470000   23.9480000  
C 11.2410000   20.4570000   22.6450000  
C 12.4440000   19.9390000   22.2710000  
C 13.5080000   19.6840000   23.1690000  
C 13.1840000   19.8550000   24.5480000  
C 10.3860000   20.5670000   21.5250000  
C 11.2050000   20.1090000   20.4260000  
N 12.5080000   19.7880000   20.9080000  
O  9.5060000   20.3040000   18.8440000  
C 10.7630000   19.8620000   19.0280000  
O 11.4600000   19.4420000   18.0750000  
O 14.1620000   19.5700000   25.5120000  
O 11.6220000   20.7580000   26.2530000  
H 10.0460000   21.2770000   24.2220000  
H  9.2570000   20.6270000   21.4440000  
H  9.2760000   20.7190000   19.7360000  
H 13.2000000   19.1710000   20.4830000  
H 14.9000000   19.0000000   25.1680000  
H 12.4220000   20.5240000   26.7610000  
C 14.7860000   19.0030000   22.7410000  
C 15.5700000   19.6240000   21.7820000  
C 16.7690000   19.0980000   21.4430000  
C 17.2970000   17.8780000   21.9580000  
C 16.4360000   17.1790000   22.8100000  
C 15.1120000   17.6970000   23.1600000  
C 15.3900000   20.7550000   20.9820000  
C 16.4710000   20.8910000   20.1420000  
N 17.3450000   19.7980000   20.3770000  
O 15.7020000   22.7290000   18.9460000  
C 16.7570000   21.9570000   19.2100000  
O 17.8500000   22.1100000   18.6780000  
O 16.7310000   15.9220000   23.2950000  
O 14.2800000   17.0820000   24.0410000  
H 14.5240000   21.4170000   21.0260000  
H 15.0430000   22.2940000   19.4570000  
H 18.2920000   19.7500000   20.0670000  
H 17.6990000   15.7750000   23.1260000  
H 13.5510000   17.7260000   24.1760000  
C 18.5230000   17.3200000   21.4080000  
C 19.6130000   17.9670000   21.9100000  
C 20.8710000   17.4890000   21.6030000  
C 21.1200000   16.4040000   20.7810000  
C 20.0530000   15.6850000   20.3010000  
C 18.7290000   16.1160000   20.6710000  
C 19.7810000   19.1130000   22.7610000  
C 21.1250000   19.2000000   23.0170000  
N 21.8240000   18.2050000   22.2930000  
O 20.9970000   21.1610000   24.4260000  
C 21.7650000   20.2110000   23.8180000  
O 22.9870000   20.2680000   23.9530000  
O 20.2250000   14.5510000   19.5410000  
O 17.7350000   15.4760000   20.1280000  
H 18.8880000   19.6470000   23.1700000  
H 20.0420000   21.0000000   24.1340000  
H 22.8610000   18.1250000   22.1380000  
H 21.1970000   14.3520000   19.5570000  
H 18.0590000   14.7800000   19.6320000  
C 22.5220000   15.9210000   20.5940000  
C 23.2420000   15.3010000   21.6770000  
C 24.5070000   14.9150000   21.4960000  
C 25.1390000   14.9540000   20.3080000  
C 24.4600000   15.3770000   19.2000000  
C 23.1480000   15.9410000   19.3420000  
C 22.9500000   15.1140000   23.0810000  
C 24.0690000   14.5630000   23.6900000  
N 24.9770000   14.3160000   22.6870000  
O 23.2460000   14.8210000   25.9430000  
C 24.2280000   14.3640000   25.1530000  
O 25.2990000   13.9790000   25.5870000  
O 25.0940000   15.3570000   18.0070000  
O 22.5730000   16.5380000   18.2430000  
H 21.9430000   15.3420000   23.5370000  
H 22.4660000   15.1340000   25.4090000  
H 25.8930000   13.8620000   22.8360000  
H 24.4570000   15.5440000   17.3320000  
H 21.7980000   17.0370000   18.5030000  
H 26.1410000   14.6690000   20.1430000  
