78
101 
C 21.9940000   12.3110000   18.3590000  
C 21.0300000   11.3050000   18.1370000  
C 19.8050000   11.6850000   18.5910000  
C 19.4740000   12.9170000   19.1360000  
C 20.3460000   13.9270000   19.4140000  
C 21.6240000   13.5850000   18.9140000  
C 18.5040000   10.9870000   18.4050000  
C 17.5550000   11.9340000   18.8060000  
N 18.1780000   13.0940000   19.2670000  
O 15.6560000   10.5950000   18.2710000  
C 16.0680000   11.7990000   18.7470000  
O 15.2750000   12.6550000   19.0870000  
O 22.5960000   14.5630000   19.1250000  
O 23.2600000   12.0360000   17.9140000  
H 21.2700000   10.2990000   17.7630000  
H 18.4110000    9.9550000   18.0210000  
H 16.4520000   10.0830000   18.1070000  
H 17.6220000   13.9130000   19.5590000  
H 22.0740000   15.2620000   19.4420000  
H 23.7690000   12.8730000   17.9860000  
C 19.9160000   15.2120000   19.9370000  
C 19.2050000   15.2340000   21.1620000  
C 18.7330000   16.4030000   21.6510000  
C 18.8350000   17.6870000   21.0270000  
C 19.6490000   17.7060000   19.8630000  
C 20.1540000   16.4660000   19.3330000  
C 18.9260000   14.1550000   22.0910000  
C 18.1450000   14.7380000   23.1170000  
N 18.0740000   16.1380000   22.8420000  
O 17.4920000   12.7930000   24.3620000  
C 17.4630000   14.1360000   24.2990000  
O 16.8600000   14.7830000   25.1360000  
O 19.8470000   18.8660000   19.2210000  
O 20.9370000   16.6140000   18.1680000  
H 19.2590000   13.1280000   22.0790000  
H 18.2570000   12.7040000   23.7880000  
H 17.5090000   16.8500000   23.2510000  
H 19.3090000   19.5920000   19.5840000  
H 20.8040000   17.5080000   17.7990000  
C 18.0240000   18.8870000   21.5480000  
C 18.2110000   19.3790000   22.8190000  
C 17.5170000   20.3920000   23.3170000  
C 16.5230000   21.1230000   22.6330000  
C 16.3350000   20.6240000   21.2910000  
C 17.0820000   19.5700000   20.7440000  
C 19.0810000   19.0340000   23.9510000  
C 18.8810000   19.9880000   24.9410000  
N 17.8900000   20.8970000   24.5610000  
O 20.4890000   19.2300000   26.6290000  
C 19.4640000   20.0940000   26.2880000  
O 19.0460000   20.8340000   27.2140000  
O 15.5080000   21.2790000   20.4060000  
O 16.8670000   19.2000000   19.4230000  
H 19.8890000   18.3080000   23.9130000  
H 20.7010000   18.8240000   25.7670000  
H 17.4670000   21.6300000   25.0880000  
H 14.9730000   21.9420000   20.9120000  
H 16.2420000   19.7890000   18.9380000  
C 15.7390000   22.2670000   23.1790000  
C 16.4440000   23.5120000   23.5210000  
C 15.6860000   24.5960000   23.7080000  
C 14.2880000   24.6360000   23.7290000  
C 13.6060000   23.3740000   23.5130000  
C 14.3480000   22.2060000   23.1960000  
C 17.7910000   23.9260000   23.6370000  
C 17.8020000   25.2490000   24.0700000  
N 16.5030000   25.6900000   23.9970000  
O 20.1670000   25.3920000   24.2680000  
C 18.9810000   26.0950000   24.4350000  
O 18.9320000   27.2330000   24.8280000  
O 12.2870000   23.3600000   23.6340000  
O 13.7170000   21.0290000   23.0290000  
H 18.5860000   23.2330000   23.4930000  
H 19.8620000   24.6570000   23.7430000  
H 16.1860000   26.6560000   24.0540000  
H 11.8800000   22.5290000   23.3450000  
H 14.4420000   20.5300000   22.5930000  
H 13.7920000   25.5640000   24.0840000  
