78
101 
C 20.5270000   12.2550000   26.3700000  
C 21.7460000   12.7190000   26.9320000  
C 22.1100000   13.9850000   26.5790000  
C 21.4100000   14.7730000   25.7020000  
C 20.1270000   14.4680000   25.1940000  
C 19.7200000   13.1140000   25.5430000  
C 23.1370000   14.7900000   27.1610000  
C 22.9210000   16.0870000   26.6000000  
N 21.8110000   16.0370000   25.6940000  
O 24.8320000   17.1720000   27.5260000  
C 23.7030000   17.3180000   26.8470000  
O 23.4080000   18.3530000   26.3150000  
O 18.4820000   12.7740000   25.1210000  
O 20.1410000   10.9840000   26.7040000  
H 22.3960000   12.1440000   27.5610000  
H 23.7060000   14.4960000   28.0660000  
H 24.9220000   16.2080000   27.6540000  
H 21.2440000   16.8130000   25.3640000  
H 18.1180000   13.5610000   24.7290000  
H 19.4230000   10.6850000   26.1260000  
C 19.3610000   15.5580000   24.3930000  
C 19.9330000   16.1410000   23.2720000  
C 19.2100000   17.0810000   22.5680000  
C 17.9030000   17.5960000   22.9270000  
C 17.3310000   16.9490000   24.0270000  
C 18.0670000   15.9430000   24.7120000  
C 21.1690000   16.0060000   22.4820000  
C 21.1260000   16.8960000   21.4070000  
N 19.8890000   17.5010000   21.4660000  
O 23.3150000   16.5410000   20.5140000  
C 22.0880000   17.1320000   20.3640000  
O 21.8420000   17.9560000   19.5070000  
O 16.1160000   17.3050000   24.4920000  
O 17.5460000   15.5260000   25.8470000  
H 21.9700000   15.2620000   22.5810000  
H 23.1900000   15.9250000   21.3150000  
H 19.5260000   18.1420000   20.8180000  
H 15.8210000   18.0490000   23.8860000  
H 16.6320000   15.8820000   25.9490000  
C 17.2550000   18.6780000   22.1270000  
C 16.9460000   18.4220000   20.8050000  
C 16.4880000   19.4540000   19.9640000  
C 16.3220000   20.7710000   20.3480000  
C 16.6700000   21.0800000   21.6450000  
C 17.2200000   20.0630000   22.5150000  
C 16.8650000   17.2300000   20.0270000  
C 16.2930000   17.5580000   18.7850000  
N 16.1810000   18.9660000   18.7240000  
O 16.0410000   15.3100000   17.9540000  
C 15.8460000   16.6020000   17.6870000  
O 15.3230000   16.9810000   16.6720000  
O 16.6770000   22.3660000   22.0760000  
O 17.7120000   20.5680000   23.7290000  
H 16.8810000   16.2850000   20.4660000  
H 16.4510000   15.2640000   18.8650000  
H 16.0600000   19.4960000   17.8410000  
H 16.4760000   22.9660000   21.2840000  
H 17.8600000   21.5360000   23.7120000  
C 15.9930000   21.8110000   19.3820000  
C 14.7360000   21.8410000   18.7220000  
C 14.4220000   22.7080000   17.7600000  
C 15.3720000   23.6950000   17.3630000  
C 16.5330000   23.7760000   18.0750000  
C 16.9110000   22.8050000   19.0580000  
C 13.6220000   20.9300000   18.8260000  
C 12.6730000   21.3730000   17.8180000  
N 13.2220000   22.5140000   17.1940000  
O 11.1140000   19.6840000   18.3640000  
C 11.3250000   20.7340000   17.5850000  
O 10.4060000   21.1740000   16.9050000  
O 17.3810000   24.7320000   17.7120000  
O 18.1760000   22.8040000   19.5890000  
H 13.5680000   20.0260000   19.4190000  
H 11.9990000   19.3790000   18.6140000  
H 12.8770000   23.0940000   16.4370000  
H 18.2110000   24.6590000   18.1280000  
H 18.2770000   22.1200000   20.2820000  
H 15.2430000   24.3670000   16.5640000  
