78
101 
C 11.7800000   20.4200000   25.0000000  
C 10.6750000   20.2880000   24.0980000  
C 10.9440000   19.8190000   22.8100000  
C 12.1860000   19.5070000   22.4760000  
C 13.3310000   19.6610000   23.2790000  
C 13.0710000   20.1860000   24.5780000  
C 10.1030000   19.4170000   21.6820000  
C 10.9580000   18.9010000   20.6990000  
N 12.2410000   18.9130000   21.2150000  
O  9.1240000   18.2220000   19.3130000  
C 10.4260000   18.2320000   19.4690000  
O 11.1460000   17.7960000   18.6440000  
O 14.0100000   20.3030000   25.5620000  
O 11.4910000   20.7010000   26.2710000  
H  9.6890000   20.4060000   24.4600000  
H  9.0360000   19.4220000   21.6180000  
H  8.7080000   18.8330000   19.9540000  
H 13.0810000   18.4820000   20.8740000  
H 14.8040000   19.8780000   25.3180000  
H 12.2240000   21.1180000   26.6900000  
C 14.7710000   19.2930000   22.8940000  
C 15.4540000   19.8880000   21.8050000  
C 16.6820000   19.4800000   21.4780000  
C 17.4280000   18.4770000   22.0860000  
C 16.7770000   17.9040000   23.2020000  
C 15.4980000   18.2950000   23.5780000  
C 15.1140000   21.0570000   20.9020000  
C 16.1580000   20.9590000   19.9720000  
N 17.1890000   20.0480000   20.3450000  
O 15.1540000   22.6930000   18.5880000  
C 16.2160000   21.9420000   18.8210000  
O 17.2480000   21.9180000   18.1520000  
O 17.4400000   16.8630000   23.8460000  
O 14.9020000   17.6780000   24.6860000  
H 14.2600000   21.7900000   20.9750000  
H 14.4200000   22.2110000   19.0660000  
H 18.1070000   19.8710000   19.9260000  
H 18.1690000   16.6900000   23.2560000  
H 13.9610000   17.9570000   24.8000000  
C 18.7480000   17.9770000   21.6060000  
C 19.8610000   18.1990000   22.4330000  
C 21.0300000   17.5810000   22.0610000  
C 21.3030000   16.8460000   20.8660000  
C 20.1300000   16.7130000   20.0620000  
C 18.8680000   17.2630000   20.4300000  
C 20.0940000   19.0530000   23.6010000  
C 21.5020000   18.9720000   23.7770000  
N 22.0120000   18.0190000   22.8450000  
O 21.4630000   20.2780000   25.6990000  
C 22.2600000   19.6230000   24.8050000  
O 23.4550000   19.4700000   24.9720000  
O 20.1590000   15.8970000   18.8810000  
O 17.7450000   17.1430000   19.5800000  
H 19.3720000   19.7250000   24.0100000  
H 20.6150000   20.1840000   25.2650000  
H 23.0450000   17.8500000   22.6740000  
H 21.0710000   15.7110000   18.5750000  
H 17.9630000   16.5540000   18.8430000  
C 22.6150000   16.3820000   20.4560000  
C 23.3280000   15.4660000   21.2120000  
C 24.5700000   14.9850000   20.7960000  
C 25.1300000   15.3700000   19.5760000  
C 24.4880000   16.3970000   18.8630000  
C 23.2200000   16.8840000   19.3090000  
C 23.1370000   14.8940000   22.5490000  
C 24.2520000   14.1230000   22.7910000  
N 25.1440000   14.1660000   21.6990000  
O 23.0790000   13.2110000   24.5830000  
C 24.2490000   13.1510000   23.8920000  
O 25.1580000   12.2970000   24.0410000  
O 25.0680000   16.9530000   17.7870000  
O 22.6880000   18.0250000   18.7800000  
H 22.2010000   14.8450000   23.1170000  
H 22.5720000   13.9670000   24.2690000  
H 25.8660000   13.4180000   21.4650000  
H 24.5570000   17.8370000   17.6610000  
H 21.9680000   18.1690000   19.3530000  
H 26.0860000   14.9380000   19.3890000  
