78
101 
C 17.4570000   19.4440000   29.0130000  
C 16.4940000   20.4810000   29.3730000  
C 15.8280000   21.0110000   28.2600000  
C 16.0480000   20.5400000   27.0030000  
C 16.9650000   19.5760000   26.6260000  
C 17.6810000   19.0160000   27.6970000  
C 14.7000000   21.8630000   28.1980000  
C 14.3520000   21.9130000   26.8660000  
N 15.1880000   21.0810000   26.0790000  
O 12.5590000   23.5440000   27.1880000  
C 13.1930000   22.7090000   26.3330000  
O 12.8190000   22.7580000   25.1960000  
O 18.5290000   18.0040000   27.5030000  
O 18.2150000   18.8210000   29.9330000  
H 16.3390000   20.6490000   30.4040000  
H 14.2190000   22.4360000   28.9860000  
H 12.6760000   23.2110000   28.0860000  
H 15.0330000   20.7410000   25.1330000  
H 18.4850000   17.7190000   26.5760000  
H 18.5000000   17.9930000   29.4870000  
C 17.0560000   18.9570000   25.2210000  
C 17.4120000   19.7990000   24.1030000  
C 17.4990000   19.3040000   22.8490000  
C 17.2250000   17.9790000   22.5020000  
C 16.7090000   17.1000000   23.5490000  
C 16.5950000   17.6040000   24.8900000  
C 17.6780000   21.2260000   23.9350000  
C 17.9210000   21.5200000   22.5650000  
N 17.7690000   20.2850000   21.8670000  
O 18.4100000   23.7560000   22.6740000  
C 18.3770000   22.7030000   21.8630000  
O 18.7220000   22.7100000   20.7040000  
O 16.3600000   15.8340000   23.2790000  
O 16.0230000   16.8560000   25.8090000  
H 17.8060000   21.9430000   24.7630000  
H 18.1640000   23.3430000   23.5330000  
H 17.8480000   20.1890000   20.8240000  
H 16.6320000   15.5190000   22.3240000  
H 15.9120000   15.9650000   25.4630000  
C 17.5740000   17.4380000   21.1410000  
C 18.8980000   17.7020000   20.6930000  
C 19.3030000   17.2320000   19.5110000  
C 18.4150000   16.5220000   18.6320000  
C 17.0830000   16.3420000   18.9920000  
C 16.6650000   16.6700000   20.3000000  
C 20.0560000   18.3770000   21.2280000  
C 21.0000000   18.2440000   20.2330000  
N 20.5870000   17.4710000   19.1660000  
O 22.7000000   19.5190000   21.2270000  
C 22.3940000   18.8010000   20.1820000  
O 23.2300000   18.6050000   19.3150000  
O 16.2000000   15.7440000   18.1510000  
O 15.3630000   16.5370000   20.6020000  
H 20.2400000   18.9420000   22.1040000  
H 21.9150000   19.5240000   21.7660000  
H 21.1660000   16.9890000   18.4610000  
H 16.7490000   15.5480000   17.4870000  
H 14.9540000   15.9830000   19.8490000  
C 18.9160000   16.0390000   17.2680000  
C 19.6660000   14.8610000   17.2200000  
C 20.2030000   14.5090000   16.0120000  
C 19.7170000   14.9910000   14.8210000  
C 18.8050000   16.0770000   14.8570000  
C 18.3680000   16.5560000   16.0800000  
C 20.2150000   14.0240000   18.2320000  
C 20.9390000   13.0420000   17.6120000  
N 20.9260000   13.3710000   16.2520000  
O 21.5730000   11.7420000   19.4830000  
C 21.7270000   11.9580000   18.2230000  
O 22.5190000   11.2870000   17.5520000  
O 18.2590000   16.5510000   13.7000000  
O 17.4750000   17.6200000   16.1420000  
H 20.0350000   14.1650000   19.3010000  
H 20.7650000   12.3020000   19.5750000  
H 21.6630000   13.0390000   15.6390000  
H 17.4170000   17.0280000   13.9430000  
H 17.4470000   17.9260000   17.0240000  
H 20.0570000   14.5640000   13.8860000  
