78
101 
C 22.8770000   12.3470000   23.2460000  
C 22.5870000   11.3800000   22.2860000  
C 21.6860000   11.7030000   21.1900000  
C 20.9990000   12.8660000   21.2110000  
C 21.1220000   13.8560000   22.2330000  
C 22.2050000   13.6140000   23.1550000  
C 21.2150000   10.9440000   20.1430000  
C 20.2900000   11.7400000   19.4220000  
N 20.1280000   12.9580000   20.1510000  
O 19.7810000   10.0720000   17.7740000  
C 19.4480000   11.2980000   18.2920000  
O 18.5530000   11.9790000   17.8300000  
O 22.5080000   14.6380000   24.0180000  
O 23.7030000   12.0040000   24.2360000  
H 22.9090000   10.3340000   22.2580000  
H 21.5410000    9.9020000   20.0170000  
H 20.4610000    9.7760000   18.4360000  
H 19.5330000   13.7290000   19.9490000  
H 21.9080000   15.4230000   23.7620000  
H 24.2110000   12.8150000   24.4270000  
C 20.4330000   15.1820000   22.1080000  
C 19.2880000   15.3610000   22.8350000  
C 18.4840000   16.4190000   22.7080000  
C 18.7980000   17.5100000   21.8810000  
C 20.0220000   17.3910000   21.1690000  
C 20.8690000   16.2250000   21.3040000  
C 18.6250000   14.4710000   23.8390000  
C 17.5140000   15.2360000   24.2920000  
N 17.3570000   16.3830000   23.4480000  
O 17.0180000   13.6930000   26.0510000  
C 16.7080000   14.8250000   25.4400000  
O 15.7720000   15.4940000   25.8140000  
O 20.4680000   18.4610000   20.4420000  
O 21.9950000   16.0920000   20.5750000  
H 18.9800000   13.4900000   24.1150000  
H 17.8460000   13.2880000   25.6160000  
H 16.7010000   17.1460000   23.6040000  
H 19.8120000   19.1120000   20.6660000  
H 21.9040000   16.5150000   19.7090000  
C 17.9450000   18.6910000   21.6300000  
C 17.6610000   19.6060000   22.6880000  
C 16.7550000   20.5950000   22.5340000  
C 16.0830000   20.9420000   21.3480000  
C 16.4630000   20.1200000   20.2260000  
C 17.3130000   19.0060000   20.3520000  
C 18.1190000   19.7390000   24.0520000  
C 17.3980000   20.7710000   24.6190000  
N 16.5160000   21.3210000   23.7080000  
O 18.7440000   20.9250000   26.4260000  
C 17.6080000   21.3910000   25.9550000  
O 16.9270000   22.2820000   26.4340000  
O 15.8280000   20.3640000   19.0700000  
O 17.6480000   18.2900000   19.2620000  
H 18.8150000   19.1100000   24.5390000  
H 18.9250000   20.1920000   25.8520000  
H 16.1810000   22.2830000   23.6730000  
H 15.2610000   21.1140000   19.2120000  
H 16.9320000   18.3210000   18.5760000  
C 15.0810000   22.0510000   21.2140000  
C 15.4760000   23.3150000   20.7520000  
C 14.5240000   24.2700000   20.4680000  
C 13.1490000   24.0630000   20.5850000  
C 12.7140000   22.7610000   20.9550000  
C 13.6720000   21.7810000   21.2430000  
C 16.7180000   23.9070000   20.4880000  
C 16.5030000   25.2300000   20.2340000  
N 15.1210000   25.4630000   20.2300000  
O 18.8310000   25.9180000   19.9620000  
C 17.4710000   26.3000000   19.8530000  
O 17.1960000   27.3750000   19.4960000  
O 11.3930000   22.4830000   20.9560000  
O 13.3250000   20.4370000   21.4420000  
H 17.6740000   23.4080000   20.5920000  
H 18.7720000   25.0220000   20.2940000  
H 14.6840000   26.1980000   19.8480000  
H 11.1990000   21.6750000   21.4950000  
H 14.1180000   19.9260000   21.6540000  
H 12.4790000   24.8660000   20.3880000  
