78
101 
C 13.6260000   18.0720000   15.8150000  
C 12.6600000   17.0520000   15.8450000  
C 12.7650000   16.2970000   17.0750000  
C 13.5500000   16.5540000   18.1650000  
C 14.5120000   17.5500000   18.0830000  
C 14.5220000   18.3120000   16.8480000  
C 12.0420000   15.1100000   17.5340000  
C 12.3640000   14.8150000   18.8600000  
N 13.3750000   15.7170000   19.2750000  
O 10.8700000   12.9300000   19.1150000  
C 11.7270000   13.7510000   19.7450000  
O 11.9890000   13.6580000   20.9170000  
O 15.4410000   19.2680000   16.6360000  
O 13.6490000   18.9230000   14.6830000  
H 12.0340000   16.8140000   15.0190000  
H 11.1900000   14.6970000   17.0780000  
H 10.7120000   13.2870000   18.1960000  
H 13.6450000   15.7600000   20.2500000  
H 15.9170000   19.4690000   17.4690000  
H 14.3010000   19.5850000   14.8480000  
C 15.4430000   17.6780000   19.2230000  
C 16.3960000   16.7000000   19.5220000  
C 17.3350000   16.8480000   20.5110000  
C 17.5810000   18.0100000   21.2680000  
C 16.6110000   19.0570000   20.9590000  
C 15.5500000   18.8830000   19.9800000  
C 16.6890000   15.4320000   18.9800000  
C 17.7100000   14.8770000   19.7230000  
N 18.0100000   15.7240000   20.7660000  
O 17.6740000   12.8690000   18.4760000  
C 18.1710000   13.5060000   19.5300000  
O 18.9730000   12.9010000   20.2570000  
O 16.8530000   20.2520000   21.6210000  
O 14.7090000   19.9720000   19.6940000  
H 16.2940000   15.0280000   18.0440000  
H 17.1960000   13.5390000   17.9870000  
H 18.6740000   15.5260000   21.5390000  
H 17.6910000   20.1680000   22.1260000  
H 14.1110000   19.7340000   18.9290000  
C 18.6510000   18.1200000   22.3320000  
C 19.6310000   19.1080000   22.2870000  
C 20.6010000   19.1980000   23.2340000  
C 20.6160000   18.4640000   24.3910000  
C 19.6150000   17.4380000   24.5280000  
C 18.6160000   17.3710000   23.5450000  
C 19.8760000   20.1240000   21.3600000  
C 20.9330000   20.9480000   21.8080000  
N 21.4440000   20.2590000   23.0000000  
O 20.8400000   22.6580000   20.1140000  
C 21.5240000   22.0790000   21.1890000  
O 22.4800000   22.5980000   21.7180000  
O 19.6320000   16.6720000   25.6160000  
O 17.5420000   16.5380000   23.7600000  
H 19.4890000   20.1990000   20.3150000  
H 20.1990000   22.0890000   19.7830000  
H 22.1890000   20.5390000   23.5870000  
H 20.5200000   16.8110000   26.0880000  
H 17.6980000   16.1480000   24.6080000  
C 21.6600000   18.7010000   25.4300000  
C 21.5630000   19.8250000   26.2690000  
C 22.6560000   20.1340000   27.0840000  
C 23.8070000   19.4100000   27.1120000  
C 23.9300000   18.2240000   26.3160000  
C 22.8790000   17.8780000   25.5100000  
C 20.5690000   20.7710000   26.5200000  
C 21.1200000   21.6420000   27.4230000  
N 22.4650000   21.2960000   27.7240000  
O 19.1050000   22.8500000   27.8840000  
C 20.4520000   22.7930000   28.0680000  
O 21.0720000   23.5690000   28.7710000  
O 25.1220000   17.6240000   26.3060000  
O 23.0840000   16.8600000   24.5300000  
H 19.5310000   20.6790000   26.2300000  
H 18.7880000   22.0830000   27.3880000  
H 23.0190000   21.5330000   28.4830000  
H 25.1950000   17.1520000   25.5020000  
H 22.3940000   16.8700000   23.8400000  
H 24.6350000   19.6740000   27.7310000  
