78
101 
C 11.5310000   21.5480000   23.1610000  
C 10.5180000   20.8590000   22.4530000  
C 10.8010000   19.6750000   21.7910000  
C 12.0640000   19.1910000   21.8040000  
C 13.1750000   19.7470000   22.5070000  
C 12.8340000   20.9090000   23.2250000  
C  9.8830000   18.8190000   21.0070000  
C 10.8300000   17.8550000   20.5810000  
N 12.1260000   18.0200000   21.1200000  
O  9.1410000   16.7370000   19.2960000  
C 10.4150000   16.6660000   19.7630000  
O 11.0520000   15.6470000   19.5980000  
O 13.7790000   21.4910000   24.0090000  
O 11.2680000   22.7080000   23.8680000  
H  9.4960000   21.3250000   22.4360000  
H  8.8760000   18.9000000   20.9740000  
H  8.8330000   17.6650000   19.5570000  
H 12.9770000   17.5020000   21.0360000  
H 14.4850000   20.8910000   24.0830000  
H 12.0500000   23.0340000   24.1760000  
C 14.5650000   19.2630000   22.3680000  
C 15.2700000   19.3610000   21.1650000  
C 16.5170000   18.8060000   21.0150000  
C 17.2100000   18.0820000   22.0070000  
C 16.5490000   17.9690000   23.1940000  
C 15.2580000   18.5120000   23.3760000  
C 15.0150000   19.9820000   19.8940000  
C 16.0580000   19.7420000   18.9960000  
N 17.0060000   19.0150000   19.7540000  
O 15.3950000   21.1350000   17.2280000  
C 16.3330000   20.2880000   17.6970000  
O 17.3810000   20.1580000   17.1110000  
O 17.1090000   17.0950000   24.1490000  
O 14.6720000   18.3020000   24.6280000  
H 14.1540000   20.5760000   19.6030000  
H 14.5620000   21.2530000   17.7670000  
H 17.9390000   18.9130000   19.4000000  
H 17.8660000   16.6660000   23.7220000  
H 13.7120000   18.2540000   24.5510000  
C 18.6680000   17.6040000   21.8470000  
C 19.7350000   18.2330000   22.4820000  
C 21.0460000   17.9610000   22.2720000  
C 21.4660000   17.0000000   21.3370000  
C 20.4080000   16.3360000   20.5780000  
C 19.0770000   16.6780000   20.7800000  
C 19.6970000   19.2940000   23.4760000  
C 20.9950000   19.5810000   23.7550000  
N 21.8780000   18.6670000   23.1510000  
O 20.6120000   21.2420000   25.4170000  
C 21.5240000   20.6410000   24.6380000  
O 22.7330000   20.9780000   24.6270000  
O 20.8120000   15.4490000   19.7010000  
O 18.1810000   16.0430000   19.9670000  
H 18.8310000   19.7970000   23.8330000  
H 19.7590000   20.7670000   25.3150000  
H 22.9480000   18.6900000   23.2160000  
H 21.7670000   15.1730000   19.8370000  
H 18.7070000   15.5920000   19.2990000  
C 22.9450000   16.7740000   21.2220000  
C 23.6470000   16.0830000   22.2960000  
C 24.9670000   15.7720000   22.1680000  
C 25.6330000   16.0040000   20.9580000  
C 25.0140000   16.7170000   19.8780000  
C 23.7160000   17.1930000   20.0660000  
C 23.2480000   15.4910000   23.5810000  
C 24.4250000   14.9240000   24.1540000  
N 25.4770000   15.1090000   23.2570000  
O 23.3580000   14.0260000   26.0360000  
C 24.5140000   14.1010000   25.3540000  
O 25.5080000   13.5730000   25.7570000  
O 25.7800000   17.0090000   18.7570000  
O 23.1970000   18.0240000   19.0800000  
H 22.2190000   15.4120000   24.0810000  
H 22.7940000   14.6480000   25.5600000  
H 26.3840000   14.5930000   23.2470000  
H 25.1650000   17.5840000   18.3040000  
H 22.3400000   18.3540000   19.4750000  
H 26.6270000   15.5820000   20.8690000  
