78
101 
C 23.3900000   13.3960000   24.8950000  
C 23.1050000   12.1650000   24.3390000  
C 22.0930000   12.0580000   23.3520000  
C 21.5480000   13.1690000   22.8880000  
C 21.6880000   14.4640000   23.3990000  
C 22.6600000   14.5720000   24.4800000  
C 21.6080000   10.8940000   22.5870000  
C 20.8060000   11.4670000   21.5880000  
N 20.7430000   12.8840000   21.8290000  
O 20.2210000    9.5130000   20.3640000  
C 19.9860000   10.7980000   20.5130000  
O 19.2260000   11.4680000   19.8030000  
O 22.8950000   15.7170000   25.1600000  
O 24.2390000   13.4740000   25.9640000  
H 23.7240000   11.3800000   24.6300000  
H 21.8050000    9.8410000   22.6840000  
H 20.8660000    9.3280000   20.9810000  
H 20.1350000   13.5080000   21.2650000  
H 22.2120000   16.3190000   24.7990000  
H 24.4290000   14.4150000   26.1430000  
C 20.8400000   15.6170000   22.8840000  
C 19.4210000   15.5920000   22.8860000  
C 18.7180000   16.6580000   22.3840000  
C 19.2570000   17.8370000   21.7480000  
C 20.7120000   17.8610000   21.7960000  
C 21.4890000   16.7950000   22.4360000  
C 18.4160000   14.6580000   23.3550000  
C 17.1730000   15.1540000   22.8540000  
N 17.4010000   16.4190000   22.3510000  
O 15.9400000   13.3440000   23.5770000  
C 15.8860000   14.5570000   22.9550000  
O 14.8250000   14.9700000   22.5420000  
O 21.3120000   18.9690000   21.3080000  
O 22.8340000   16.9010000   22.4850000  
H 18.6250000   13.6210000   23.7070000  
H 16.8670000   13.2350000   23.6590000  
H 16.6700000   17.0800000   22.0450000  
H 20.6920000   19.3530000   20.6890000  
H 23.1670000   17.5980000   21.9610000  
C 18.4090000   18.9790000   21.2140000  
C 17.4370000   19.5590000   22.0280000  
C 16.4890000   20.3920000   21.4990000  
C 16.4280000   20.8020000   20.1610000  
C 17.5350000   20.3890000   19.3970000  
C 18.4650000   19.5070000   19.8600000  
C 17.1420000   19.4140000   23.4140000  
C 15.9560000   20.1420000   23.6370000  
N 15.6100000   20.8220000   22.4810000  
O 15.9320000   19.7360000   26.1160000  
C 15.3920000   20.3950000   24.9700000  
O 14.4950000   21.2040000   25.0930000  
O 17.5210000   20.8310000   18.0950000  
O 19.3970000   19.0450000   19.0530000  
H 17.8090000   18.9090000   24.2050000  
H 16.6540000   19.2090000   25.7330000  
H 15.0180000   21.6770000   22.4380000  
H 16.5870000   21.1440000   18.0160000  
H 19.4350000   19.5880000   18.3000000  
C 15.4360000   21.7340000   19.5560000  
C 15.3440000   23.0440000   20.1010000  
C 14.3140000   23.8890000   19.7820000  
C 13.4450000   23.5550000   18.6990000  
C 13.4980000   22.2490000   18.1840000  
C 14.4550000   21.3070000   18.6380000  
C 16.1310000   23.7790000   21.0810000  
C 15.5930000   25.0590000   21.1190000  
N 14.4760000   25.0770000   20.3150000  
O 17.1720000   25.9360000   22.7020000  
C 16.0310000   26.1890000   22.0030000  
O 15.4930000   27.3150000   22.0190000  
O 12.6210000   21.8200000   17.1950000  
O 14.3460000   20.0690000   18.1980000  
H 16.8220000   23.3580000   21.7800000  
H 17.3590000   25.1350000   22.1670000  
H 13.7380000   25.7230000   20.4730000  
H 13.1610000   21.1460000   16.6590000  
H 14.5980000   19.5400000   18.9200000  
H 12.8160000   24.3330000   18.2420000  
