78
101 
C 19.5990000   15.8230000   28.4860000  
C 19.4620000   16.7870000   29.5130000  
C 18.9680000   18.0770000   29.1900000  
C 18.6610000   18.3990000   27.9270000  
C 18.5700000   17.4910000   26.8610000  
C 18.9980000   16.1860000   27.2130000  
C 18.7210000   19.2810000   29.9210000  
C 18.2370000   20.2280000   29.0620000  
N 18.2140000   19.6590000   27.8040000  
O 18.0730000   21.8550000   30.6630000  
C 17.9280000   21.5690000   29.3810000  
O 17.6880000   22.4220000   28.5630000  
O 18.9010000   15.1230000   26.3120000  
O 19.9860000   14.5450000   28.7540000  
H 19.7090000   16.5630000   30.5270000  
H 19.0260000   19.4860000   30.9480000  
H 18.5460000   21.0290000   30.9650000  
H 18.1960000   20.0930000   26.9160000  
H 18.5280000   15.4770000   25.4760000  
H 19.7160000   14.0320000   28.0110000  
C 18.0650000   17.8610000   25.4860000  
C 18.8270000   18.6460000   24.6370000  
C 18.5240000   18.8520000   23.3070000  
C 17.4200000   18.3010000   22.6730000  
C 16.5930000   17.5400000   23.5360000  
C 16.8970000   17.2630000   24.8840000  
C 20.0450000   19.3610000   24.8500000  
C 20.4260000   19.9800000   23.6330000  
N 19.5300000   19.5870000   22.6570000  
O 22.3860000   21.0960000   24.5940000  
C 21.6710000   20.8400000   23.4660000  
O 22.1190000   21.1890000   22.3830000  
O 15.4660000   16.8300000   23.0330000  
O 16.1380000   16.3760000   25.6330000  
H 20.5050000   19.5540000   25.7920000  
H 21.7640000   20.7350000   25.2710000  
H 19.6230000   19.8050000   21.7080000  
H 15.3820000   17.1920000   22.1870000  
H 15.1600000   16.4320000   25.3050000  
C 17.1280000   18.4970000   21.2040000  
C 18.1130000   18.0590000   20.2890000  
C 17.9190000   18.2430000   18.9450000  
C 16.6960000   18.6040000   18.3570000  
C 15.7250000   19.0620000   19.3210000  
C 15.9430000   19.0200000   20.6580000  
C 19.4300000   17.4380000   20.4140000  
C 19.8330000   17.1680000   19.1220000  
N 18.9110000   17.6740000   18.1990000  
O 22.0030000   16.1880000   19.7700000  
C 21.1180000   16.4330000   18.7940000  
O 21.2740000   16.0190000   17.6790000  
O 14.5070000   19.5610000   18.9700000  
O 14.9770000   19.5010000   21.5320000  
H 19.9250000   17.1200000   21.3260000  
H 21.7130000   16.7780000   20.5330000  
H 18.9100000   17.5610000   17.2200000  
H 14.4170000   19.3760000   17.9930000  
H 14.1960000   19.7670000   21.0460000  
C 16.5860000   18.6960000   16.9120000  
C 16.6060000   17.4580000   16.2330000  
C 16.6430000   17.4870000   14.8820000  
C 16.7490000   18.6340000   14.0980000  
C 16.6350000   19.8580000   14.7830000  
C 16.5480000   19.9070000   16.1650000  
C 16.6190000   16.0470000   16.5960000  
C 16.5140000   15.3190000   15.4350000  
N 16.7110000   16.1840000   14.3970000  
O 16.6410000   12.9600000   16.3020000  
C 16.5700000   13.7810000   15.2100000  
O 16.4910000   13.2270000   14.0840000  
O 16.7460000   21.0040000   14.0670000  
O 16.5410000   21.0650000   16.8660000  
H 16.6350000   15.4960000   17.5620000  
H 16.6750000   13.5070000   17.0490000  
H 16.8240000   15.8430000   13.4190000  
H 16.8820000   21.7760000   14.5610000  
H 16.5530000   20.8790000   17.8300000  
H 16.6860000   18.6750000   12.9770000  
