78
101 
C 16.8330000   17.0600000   29.1420000  
C 18.0750000   17.2330000   29.8560000  
C 19.2080000   17.4970000   29.0980000  
C 19.1490000   17.6980000   27.7620000  
C 17.9970000   17.4990000   26.9760000  
C 16.8150000   17.1660000   27.6890000  
C 20.5340000   17.5470000   29.4420000  
C 21.2670000   17.8130000   28.2620000  
N 20.3430000   18.0120000   27.2010000  
O 23.3550000   17.2590000   29.2520000  
C 22.7190000   17.6570000   28.1310000  
O 23.3150000   17.9040000   27.1170000  
O 15.6510000   16.8180000   27.0320000  
O 15.7700000   16.5740000   29.8310000  
H 18.1200000   16.9920000   30.9250000  
H 21.0340000   17.1580000   30.3100000  
H 22.7530000   17.2360000   29.9250000  
H 20.5870000   18.1830000   26.2460000  
H 15.7630000   17.1080000   26.0580000  
H 15.0810000   16.3860000   29.1990000  
C 17.9740000   17.7000000   25.5180000  
C 18.6390000   16.8420000   24.6770000  
C 18.6980000   17.1060000   23.3470000  
C 18.0960000   18.2020000   22.7000000  
C 17.3850000   19.0770000   23.5010000  
C 17.2960000   18.7920000   24.8910000  
C 19.6070000   15.8740000   24.9910000  
C 20.1720000   15.4930000   23.7650000  
N 19.6380000   16.3170000   22.6970000  
O 21.6380000   13.7920000   24.5730000  
C 21.2100000   14.4300000   23.5050000  
O 21.6840000   14.2070000   22.4170000  
O 16.6940000   20.1300000   22.9840000  
O 16.6360000   19.7480000   25.6060000  
H 19.6340000   15.3680000   26.0160000  
H 21.0010000   14.1250000   25.2470000  
H 20.0460000   16.4630000   21.7930000  
H 16.9520000   20.0650000   22.0130000  
H 16.8400000   19.3950000   26.5680000  
C 18.1070000   18.2820000   21.2100000  
C 16.9810000   18.2010000   20.3650000  
C 17.0770000   18.4340000   18.9950000  
C 18.2560000   18.7970000   18.4120000  
C 19.3970000   18.9660000   19.2530000  
C 19.3070000   18.7550000   20.6280000  
C 15.6050000   17.9310000   20.6760000  
C 14.9790000   17.8440000   19.4370000  
N 15.8510000   18.2850000   18.3810000  
O 13.1100000   16.7990000   20.3100000  
C 13.6940000   17.2040000   19.2160000  
O 13.1990000   17.0220000   18.1280000  
O 20.5740000   19.3310000   18.7790000  
O 20.4190000   19.0690000   21.3930000  
H 15.3410000   17.2360000   21.5380000  
H 13.7240000   17.0800000   21.0040000  
H 15.7640000   18.3390000   17.4130000  
H 20.6610000   19.4440000   17.7740000  
H 20.2140000   18.7760000   22.2580000  
C 18.2260000   18.9760000   16.9010000  
C 17.3560000   19.8630000   16.2520000  
C 17.3920000   19.9790000   14.8520000  
C 18.2010000   19.1650000   14.0200000  
C 18.9530000   18.1890000   14.5970000  
C 19.0060000   18.1280000   16.0230000  
C 16.3320000   20.7410000   16.7260000  
C 15.7420000   21.2820000   15.5980000  
N 16.4590000   20.9040000   14.4830000  
O 13.7890000   22.0700000   16.5870000  
C 14.5210000   22.0690000   15.4800000  
O 14.1370000   22.6130000   14.4640000  
O 19.6890000   17.2940000   13.8490000  
O 19.7200000   17.0820000   16.6130000  
H 15.9560000   20.8830000   17.7320000  
H 14.2770000   21.4830000   17.1590000  
H 16.1580000   21.2030000   13.5360000  
H 19.7580000   16.4440000   14.4170000  
H 19.7790000   17.1520000   17.6020000  
H 18.2360000   19.2680000   12.9470000  
