78
101 
C 13.7040000   18.6100000   27.8400000  
C 12.7860000   19.6290000   27.7640000  
C 12.8310000   20.4570000   26.6580000  
C 13.6890000   20.1830000   25.6610000  
C 14.6750000   19.1910000   25.6810000  
C 14.6680000   18.4310000   26.8380000  
C 12.3850000   21.8150000   26.4580000  
C 12.9580000   22.3520000   25.2780000  
N 13.7930000   21.3090000   24.8320000  
O 12.0200000   24.4390000   25.7420000  
C 12.7210000   23.7490000   24.8210000  
O 13.2850000   24.1800000   23.8660000  
O 15.6700000   17.5820000   27.1460000  
O 13.7180000   17.7410000   28.8940000  
H 12.1330000   19.8560000   28.6260000  
H 11.5990000   22.3480000   27.0980000  
H 11.8710000   23.7760000   26.3980000  
H 14.4920000   21.4240000   24.1520000  
H 16.1430000   17.3930000   26.2920000  
H 14.3820000   17.1650000   28.6630000  
C 15.5090000   18.8730000   24.4970000  
C 16.5510000   19.7420000   24.1330000  
C 17.3690000   19.4280000   23.0410000  
C 17.3110000   18.2650000   22.2640000  
C 16.2240000   17.4100000   22.6100000  
C 15.3680000   17.7190000   23.7090000  
C 17.0280000   21.0360000   24.5260000  
C 18.2170000   21.3400000   23.7730000  
N 18.4730000   20.2880000   22.9570000  
O 18.5860000   23.5670000   24.6530000  
C 19.0440000   22.6300000   23.8010000  
O 20.0720000   22.8360000   23.1280000  
O 16.0110000   16.2640000   21.9330000  
O 14.5290000   16.7910000   24.1510000  
H 16.7010000   21.6990000   25.3130000  
H 17.8030000   23.2030000   25.0580000  
H 19.1500000   20.3500000   22.2280000  
H 16.1630000   16.4100000   20.9800000  
H 14.2110000   17.1460000   24.9450000  
C 18.3250000   17.9260000   21.2370000  
C 19.1550000   16.7420000   21.2440000  
C 20.0850000   16.4890000   20.2300000  
C 20.2280000   17.2430000   19.0400000  
C 19.3930000   18.4030000   18.9850000  
C 18.5090000   18.7120000   20.0590000  
C 19.4690000   15.7340000   22.2650000  
C 20.5750000   14.9380000   21.7870000  
N 20.9970000   15.4600000   20.5310000  
O 20.2650000   13.3590000   23.5500000  
C 21.0090000   13.6860000   22.4330000  
O 22.0030000   13.0900000   22.0970000  
O 19.4640000   19.3090000   17.8930000  
O 17.6280000   19.7030000   19.9280000  
H 18.9900000   15.6300000   23.2310000  
H 19.5650000   14.0400000   23.6850000  
H 21.6530000   15.0010000   19.9230000  
H 19.9420000   18.9160000   17.2280000  
H 17.6520000   19.9980000   19.0120000  
C 21.3170000   17.0260000   18.0560000  
C 21.3470000   15.8350000   17.3220000  
C 22.2250000   15.6710000   16.2870000  
C 23.1950000   16.6370000   15.9530000  
C 23.3020000   17.7920000   16.7060000  
C 22.4560000   17.9220000   17.8160000  
C 20.5350000   14.6600000   17.3840000  
C 21.0360000   13.7260000   16.4810000  
N 22.0800000   14.3520000   15.8070000  
O 19.5240000   11.8780000   16.9850000  
C 20.5640000   12.3210000   16.2390000  
O 21.0750000   11.6330000   15.3180000  
O 24.3520000   18.6530000   16.3970000  
O 22.4870000   19.1540000   18.4760000  
H 19.6040000   14.5710000   17.9970000  
H 19.5610000   12.4530000   17.7660000  
H 22.5440000   13.8590000   15.0680000  
H 24.4650000   19.1650000   17.1430000  
H 22.0210000   19.0260000   19.3250000  
H 23.9340000   16.4430000   15.1900000  
