78
101 
C 14.1190000   18.3630000   28.1210000  
C 13.9170000   19.6570000   28.5480000  
C 14.4670000   20.7680000   27.8100000  
C 15.0710000   20.5100000   26.6410000  
C 15.2670000   19.2490000   26.1350000  
C 14.8110000   18.1430000   26.9310000  
C 14.4990000   22.1800000   27.9760000  
C 15.1310000   22.7540000   26.8520000  
N 15.5920000   21.6740000   26.1020000  
O 14.8970000   24.9180000   27.5020000  
C 15.4330000   24.1450000   26.5170000  
O 16.0470000   24.5860000   25.5720000  
O 14.9460000   16.8620000   26.5660000  
O 13.6670000   17.3030000   28.9210000  
H 13.1930000   19.8650000   29.3740000  
H 13.9360000   22.7180000   28.6860000  
H 14.3430000   24.3820000   28.0150000  
H 16.1100000   21.7960000   25.2650000  
H 15.2900000   16.8920000   25.6660000  
H 13.6650000   16.4750000   28.4490000  
C 15.9610000   19.0200000   24.7960000  
C 17.3240000   19.2160000   24.6120000  
C 17.8520000   19.0520000   23.3580000  
C 17.1990000   18.6850000   22.1620000  
C 15.8200000   18.5420000   22.3260000  
C 15.2060000   18.6540000   23.6040000  
C 18.3770000   19.7020000   25.4650000  
C 19.5390000   19.6060000   24.6800000  
N 19.1820000   19.2220000   23.3730000  
O 21.1800000   19.9820000   26.3890000  
C 20.9600000   19.8630000   25.0470000  
O 21.7750000   20.0460000   24.2550000  
O 15.0260000   18.2460000   21.2570000  
O 13.8730000   18.2600000   23.6710000  
H 18.3260000   20.0190000   26.4500000  
H 20.3430000   19.8520000   26.7910000  
H 19.7430000   19.1500000   22.5360000  
H 15.4190000   18.4290000   20.4220000  
H 13.5390000   18.3280000   22.7530000  
C 17.9410000   18.3900000   20.8510000  
C 18.8930000   17.3620000   20.7880000  
C 19.4800000   16.9680000   19.6090000  
C 19.2810000   17.6090000   18.3790000  
C 18.3240000   18.6660000   18.3660000  
C 17.6820000   19.0390000   19.6020000  
C 19.3720000   16.3880000   21.7730000  
C 20.2840000   15.4920000   21.1930000  
N 20.3280000   15.8950000   19.8180000  
O 20.7980000   14.1410000   23.1590000  
C 20.9840000   14.3340000   21.7920000  
O 21.7050000   13.4950000   21.2890000  
O 17.9990000   19.3300000   17.2090000  
O 16.8130000   20.0990000   19.5490000  
H 18.9540000   16.2700000   22.7110000  
H 20.0760000   14.7820000   23.4020000  
H 21.0030000   15.5380000   19.2290000  
H 18.5630000   19.0430000   16.5010000  
H 16.9590000   20.6090000   18.7450000  
C 20.0210000   17.2170000   17.1560000  
C 20.1030000   15.9190000   16.6320000  
C 20.9030000   15.5580000   15.6150000  
C 21.7940000   16.3350000   15.0090000  
C 21.7830000   17.6750000   15.4350000  
C 20.9560000   18.1130000   16.5710000  
C 19.2950000   14.8190000   17.0030000  
C 19.6440000   13.7830000   16.2050000  
N 20.7350000   14.2060000   15.3590000  
O 18.1220000   12.1810000   17.0620000  
C 18.9800000   12.4500000   16.1130000  
O 19.2390000   11.6410000   15.2400000  
O 22.4860000   18.5440000   14.7190000  
O 21.1110000   19.4320000   16.9550000  
H 18.5220000   14.7680000   17.7320000  
H 18.1750000   12.9870000   17.5320000  
H 21.1860000   13.7150000   14.5930000  
H 22.4220000   19.4940000   15.0250000  
H 20.7160000   19.5330000   17.8100000  
H 22.3530000   15.9970000   14.1540000  
