78
101 
C 11.3280000   20.7950000   20.6290000  
C 10.4620000   19.8090000   20.1120000  
C 11.0020000   18.5260000   19.8650000  
C 12.3210000   18.3180000   20.1000000  
C 13.1480000   19.2250000   20.8100000  
C 12.6400000   20.5420000   21.0000000  
C 10.3360000   17.3110000   19.3910000  
C 11.4390000   16.3810000   19.3330000  
N 12.5970000   17.0070000   19.7970000  
O 10.0900000   14.5900000   18.8230000  
C 11.4410000   14.9350000   18.9490000  
O 12.4180000   14.2380000   18.7790000  
O 13.3340000   21.5950000   21.5420000  
O 10.8080000   22.0020000   20.8890000  
H  9.3860000   19.9870000   19.8550000  
H  9.2900000   17.2260000   19.0490000  
H  9.6790000   15.3860000   19.1590000  
H 13.5210000   16.5450000   19.9140000  
H 14.2870000   21.3310000   21.7280000  
H 11.4400000   22.6370000   21.4720000  
C 14.5570000   18.8880000   21.1310000  
C 15.4650000   18.5240000   20.1080000  
C 16.7440000   18.1200000   20.4850000  
C 17.2940000   18.0210000   21.7920000  
C 16.3170000   18.3920000   22.7650000  
C 15.0240000   18.8900000   22.4350000  
C 15.3510000   18.2760000   18.6850000  
C 16.6290000   17.9520000   18.2180000  
N 17.4210000   17.7720000   19.3670000  
O 16.1280000   17.8610000   15.9000000  
C 17.0650000   17.6150000   16.8270000  
O 18.0910000   17.1760000   16.4520000  
O 16.6650000   18.2950000   24.1140000  
O 14.1870000   19.2930000   23.4240000  
H 14.5340000   18.5600000   18.0140000  
H 15.3060000   18.3010000   16.2420000  
H 18.3120000   17.3730000   19.4620000  
H 17.6220000   18.2160000   24.2640000  
H 13.3100000   19.4030000   22.9980000  
C 18.7180000   17.6590000   22.1670000  
C 19.6600000   18.6960000   22.2940000  
C 20.9980000   18.4280000   22.5990000  
C 21.4640000   17.1190000   22.8500000  
C 20.5400000   16.0440000   22.6050000  
C 19.2260000   16.3210000   22.0630000  
C 19.4990000   20.0940000   22.3220000  
C 20.7590000   20.6480000   22.6870000  
N 21.6910000   19.5720000   22.7550000  
O 20.2880000   23.0020000   22.7770000  
C 21.2180000   22.0550000   22.9580000  
O 22.3560000   22.4010000   23.2590000  
O 20.8880000   14.7880000   22.8730000  
O 18.3040000   15.3370000   21.9880000  
H 18.6290000   20.6580000   22.0200000  
H 19.4630000   22.6010000   22.4730000  
H 22.6600000   19.6400000   22.9270000  
H 21.6500000   14.7640000   23.3930000  
H 18.6970000   14.5200000   22.3330000  
C 22.8570000   16.8450000   23.1110000  
C 23.4230000   17.4360000   24.2500000  
C 24.7440000   17.1710000   24.5950000  
C 25.6100000   16.5580000   23.6780000  
C 25.0600000   16.0050000   22.4900000  
C 23.7220000   16.2190000   22.2250000  
C 22.8180000   18.0650000   25.3710000  
C 23.7510000   18.1350000   26.3540000  
N 24.9320000   17.6110000   25.8650000  
O 22.3740000   19.2540000   27.9730000  
C 23.5930000   18.6630000   27.7750000  
O 24.4290000   18.6650000   28.6570000  
O 25.7990000   15.2050000   21.6870000  
O 23.2400000   15.7840000   21.0280000  
H 21.7520000   18.1450000   25.4160000  
H 21.9910000   19.0490000   27.0970000  
H 25.8230000   17.6420000   26.3360000  
H 25.2220000   14.8170000   20.9400000  
H 22.2660000   15.6930000   21.1280000  
H 26.6790000   16.4400000   23.9230000  
