78
101 
C 11.2400000   21.2550000   21.7050000  
C 10.3590000   20.2440000   21.2080000  
C 10.8860000   18.9760000   20.8470000  
C 12.2190000   18.6880000   21.1050000  
C 13.1180000   19.5730000   21.6720000  
C 12.5790000   20.8540000   21.9880000  
C 10.3590000   17.7820000   20.2500000  
C 11.3070000   16.8510000   20.1350000  
N 12.4970000   17.3970000   20.6540000  
O  9.9920000   15.2000000   19.0830000  
C 11.1610000   15.5040000   19.6330000  
O 12.0740000   14.7320000   19.7430000  
O 13.4290000   21.7470000   22.5450000  
O 10.7370000   22.4730000   21.7980000  
H  9.3630000   20.5230000   21.1140000  
H  9.3240000   17.5530000   20.0410000  
H  9.5010000   16.0380000   18.9020000  
H 13.4650000   17.0370000   20.4960000  
H 14.3570000   21.6760000   22.2750000  
H 11.4000000   23.1480000   22.0650000  
C 14.6030000   19.2310000   21.7790000  
C 15.3300000   19.1410000   20.6080000  
C 16.6410000   18.9460000   20.6750000  
C 17.3600000   18.5320000   21.7930000  
C 16.6250000   18.7270000   23.0150000  
C 15.2410000   19.1800000   23.0230000  
C 14.9200000   19.2510000   19.2010000  
C 16.0470000   18.8000000   18.5050000  
N 17.1810000   18.7040000   19.3830000  
O 15.0380000   18.2740000   16.3460000  
C 16.1600000   18.3470000   17.0890000  
O 17.1680000   17.9550000   16.5970000  
O 17.2360000   18.6060000   24.1790000  
O 14.5760000   19.5280000   24.1940000  
H 13.9250000   19.2600000   18.7710000  
H 14.4150000   18.6750000   17.0180000  
H 18.0380000   18.2550000   19.2310000  
H 18.2380000   18.6230000   23.9980000  
H 13.7690000   19.9080000   23.8230000  
C 18.7980000   18.0830000   21.6810000  
C 19.7710000   18.8110000   22.3610000  
C 21.0660000   18.3460000   22.4120000  
C 21.5200000   17.1040000   21.9220000  
C 20.5660000   16.3010000   21.2790000  
C 19.2570000   16.7740000   21.1320000  
C 19.8010000   20.0940000   23.0900000  
C 21.1280000   20.3000000   23.6030000  
N 21.8700000   19.2100000   23.1370000  
O 20.7190000   22.4840000   24.5380000  
C 21.6200000   21.4240000   24.4000000  
O 22.7120000   21.4830000   24.8950000  
O 20.8820000   15.0470000   20.8800000  
O 18.2530000   15.9540000   20.6680000  
H 18.9410000   20.7080000   23.3290000  
H 20.0200000   22.1250000   23.9520000  
H 22.8920000   19.1550000   23.2510000  
H 21.8460000   14.9170000   20.8370000  
H 18.5560000   15.0410000   20.5650000  
C 22.9540000   16.7780000   21.9930000  
C 23.5190000   16.4190000   23.2410000  
C 24.8800000   16.2220000   23.3640000  
C 25.7790000   16.2630000   22.2950000  
C 25.2030000   16.5430000   21.0070000  
C 23.7800000   16.8150000   20.8750000  
C 22.8980000   16.2330000   24.5110000  
C 23.9270000   16.0100000   25.3720000  
N 25.1430000   16.0020000   24.6990000  
O 22.4410000   15.9360000   27.2620000  
C 23.7070000   15.8740000   26.7880000  
O 24.5990000   15.5860000   27.5870000  
O 26.0560000   16.5300000   19.9510000  
O 23.2960000   17.1890000   19.6100000  
H 21.8840000   16.3570000   24.7980000  
H 21.9130000   16.1450000   26.4810000  
H 26.0360000   15.7190000   25.0740000  
H 25.5070000   16.6250000   19.1950000  
H 22.3590000   17.5820000   19.6350000  
H 26.8740000   15.9970000   22.3770000  
