78
101 
C 22.4020000   14.1200000   26.1180000  
C 22.9300000   12.9340000   25.4980000  
C 22.6340000   12.8250000   24.1390000  
C 21.9220000   13.7570000   23.4900000  
C 21.2490000   14.8360000   24.0850000  
C 21.5550000   15.0470000   25.4770000  
C 23.2880000   11.9920000   23.1380000  
C 22.8100000   12.4670000   21.9660000  
N 21.9460000   13.5260000   22.1640000  
O 23.7660000   10.6130000   20.7100000  
C 23.1630000   11.8190000   20.6820000  
O 22.8200000   12.2080000   19.5970000  
O 20.9920000   16.0250000   26.2630000  
O 22.5570000   14.1550000   27.4830000  
H 23.6060000   12.2530000   25.9660000  
H 23.9280000   11.1200000   23.3850000  
H 24.1150000   10.4250000   21.6420000  
H 21.3730000   13.9710000   21.4600000  
H 20.4130000   16.5010000   25.6680000  
H 22.0870000   14.9380000   27.7680000  
C 20.3490000   15.7140000   23.3530000  
C 18.9380000   15.6530000   23.5990000  
C 18.1350000   16.5450000   22.9230000  
C 18.5340000   17.4000000   21.9020000  
C 19.9590000   17.4390000   21.7080000  
C 20.8460000   16.6330000   22.4320000  
C 18.1220000   14.7510000   24.4000000  
C 16.8140000   15.1920000   24.1820000  
N 16.8900000   16.3220000   23.3270000  
O 15.8370000   13.5810000   25.6350000  
C 15.6160000   14.5600000   24.7010000  
O 14.5120000   14.8930000   24.3640000  
O 20.4740000   18.2360000   20.6780000  
O 22.1380000   16.6980000   22.1350000  
H 18.4350000   13.9650000   25.0770000  
H 16.8010000   13.7400000   25.6200000  
H 16.0980000   16.8390000   23.0400000  
H 19.7680000   18.7080000   20.2240000  
H 22.3590000   17.5160000   21.6310000  
C 17.5680000   18.2950000   21.2110000  
C 16.8620000   19.2790000   21.9080000  
C 16.0710000   20.1340000   21.1690000  
C 15.8140000   20.1240000   19.7770000  
C 16.4060000   19.0500000   19.0990000  
C 17.2250000   18.1890000   19.7990000  
C 16.8950000   19.8700000   23.2630000  
C 16.0710000   20.9580000   23.2950000  
N 15.6000000   21.1810000   22.0230000  
O 16.3370000   21.3050000   25.6340000  
C 15.7990000   21.8240000   24.4980000  
O 15.1730000   22.8240000   24.5140000  
O 16.2300000   18.8720000   17.7650000  
O 17.9290000   17.3050000   19.0690000  
H 17.3680000   19.4370000   24.1200000  
H 16.8050000   20.4460000   25.4580000  
H 15.1800000   22.0370000   21.7320000  
H 15.8600000   19.7130000   17.3850000  
H 18.0270000   17.7260000   18.2120000  
C 14.9830000   21.1660000   19.1040000  
C 15.4040000   22.5310000   19.1170000  
C 14.7170000   23.4940000   18.3750000  
C 13.5540000   23.2360000   17.6350000  
C 13.1190000   21.8550000   17.6290000  
C 13.8150000   20.8750000   18.3620000  
C 16.4860000   23.1980000   19.8210000  
C 16.4250000   24.5570000   19.4460000  
N 15.2780000   24.6930000   18.6550000  
O 18.1890000   25.2170000   20.8380000  
C 17.2620000   25.6600000   20.0130000  
O 16.9930000   26.8230000   19.8540000  
O 11.9300000   21.5880000   16.9850000  
O 13.3270000   19.6020000   18.2970000  
H 17.1930000   22.7530000   20.5220000  
H 17.9520000   24.2260000   20.9020000  
H 15.0960000   25.5760000   18.1970000  
H 11.9800000   20.6130000   16.9140000  
H 13.8690000   18.8590000   18.7350000  
H 13.0160000   24.0310000   17.1490000  
