78
110 
C 16.0300000   15.4220000   28.8020000  
C 15.8480000   16.6490000   29.5690000  
C 15.7840000   17.9000000   28.9220000  
C 15.8940000   17.8940000   27.5160000  
C 16.3040000   16.7630000   26.7850000  
C 16.3270000   15.5010000   27.4630000  
C 15.6500000   19.2940000   29.3930000  
C 15.6630000   20.0590000   28.1970000  
N 15.8810000   19.2100000   27.0790000  
O 15.4420000   22.1390000   29.2540000  
C 15.4760000   21.4970000   28.0520000  
O 15.2470000   22.0250000   26.9710000  
O 16.3300000   14.2890000   26.7730000  
O 15.8850000   14.2130000   29.4220000  
H 15.7000000   16.6250000   30.6550000  
H 15.4490000   19.6320000   30.4190000  
H 15.3810000   21.4000000   29.9070000  
H 15.9690000   19.5400000   26.1530000  
H 16.5870000   14.4550000   25.8190000  
H 16.4960000   13.6320000   28.8750000  
C 16.6780000   16.8740000   25.3020000  
C 17.9420000   16.4120000   24.8890000  
C 18.2640000   16.1640000   23.6070000  
C 17.4780000   16.5190000   22.5420000  
C 16.2290000   17.0610000   22.9270000  
C 15.7980000   17.1540000   24.2520000  
C 19.0010000   15.8210000   25.6940000  
C 19.8890000   15.1930000   24.8280000  
N 19.4500000   15.4790000   23.5240000  
O 21.1890000   14.0720000   26.5090000  
C 21.0010000   14.2730000   25.1890000  
O 21.7720000   13.8130000   24.3600000  
O 15.3590000   17.4790000   21.8850000  
O 14.5120000   17.4730000   24.6150000  
H 19.1640000   15.7810000   26.7710000  
H 20.6750000   14.7470000   26.9780000  
H 20.0430000   15.4350000   22.6960000  
H 15.5850000   17.0890000   21.0240000  
H 14.4550000   17.3050000   25.5900000  
C 17.9780000   16.4540000   21.1710000  
C 18.1080000   15.2610000   20.4700000  
C 18.4350000   15.2330000   19.1290000  
C 18.6080000   16.3830000   18.3250000  
C 18.5710000   17.5940000   19.0500000  
C 18.3040000   17.6070000   20.4720000  
C 17.8840000   13.9070000   20.8790000  
C 18.1560000   13.0890000   19.7640000  
N 18.5300000   13.9380000   18.6880000  
O 17.6300000   10.9820000   20.7260000  
C 18.0220000   11.6360000   19.6140000  
O 18.5130000   11.1000000   18.6500000  
O 18.7030000   18.7140000   18.3300000  
O 18.4810000   18.8070000   21.1650000  
H 17.4280000   13.5620000   21.8190000  
H 17.2740000   11.6450000   21.3060000  
H 18.8670000   13.6990000   17.7680000  
H 18.3230000   18.5650000   17.4410000  
H 18.4150000   19.5610000   20.5730000  
C 18.6830000   16.2790000   16.8570000  
C 17.5880000   16.8150000   16.0800000  
C 17.6740000   16.8200000   14.7110000  
C 18.7830000   16.2840000   14.0490000  
C 19.8030000   15.6540000   14.7320000  
C 19.8060000   15.7000000   16.1750000  
C 16.3330000   17.5120000   16.3890000  
C 15.7290000   17.8600000   15.1550000  
N 16.5330000   17.3270000   14.1410000  
O 13.8770000   18.9450000   16.1470000  
C 14.4950000   18.6030000   14.9550000  
O 14.0390000   18.7940000   13.8170000  
O 20.7440000   14.9960000   13.9780000  
O 20.7370000   14.9780000   16.8920000  
H 15.9900000   17.8670000   17.3360000  
H 14.4400000   18.5060000   16.7960000  
H 16.2690000   17.2760000   13.1580000  
H 21.2540000   14.4150000   14.6600000  
H 20.5650000   15.2760000   17.7810000  
H 18.8810000   16.3210000   12.9410000  
