78
110 
C 15.9700000   10.3650000   17.8140000  
C 15.0810000   10.6000000   16.7630000  
C 14.6510000   11.9010000   16.6250000  
C 15.1490000   12.9200000   17.3930000  
C 16.0500000   12.7250000   18.5340000  
C 16.4410000   11.3900000   18.6330000  
C 13.6520000   12.4500000   15.6980000  
C 13.5670000   13.8170000   15.9750000  
N 14.5590000   14.1150000   16.9870000  
O 12.0550000   14.2750000   14.1630000  
C 12.7270000   14.7920000   15.2280000  
O 12.7080000   16.0150000   15.5180000  
O 17.2850000   11.0970000   19.6650000  
O 16.4500000    9.0590000   18.0210000  
H 14.6730000    9.8830000   15.9990000  
H 12.9970000   11.8440000   15.0940000  
H 12.4910000   13.3970000   14.0750000  
H 14.5190000   14.8290000   17.5950000  
H 17.6430000   12.0060000   19.9070000  
H 17.0600000    9.1520000   18.6890000  
C 16.5750000   13.8080000   19.4050000  
C 16.1770000   13.8420000   20.7440000  
C 16.6250000   14.8670000   21.5430000  
C 17.3530000   15.9730000   21.1660000  
C 17.8280000   15.9600000   19.7870000  
C 17.4550000   14.8650000   18.9210000  
C 15.2380000   13.0800000   21.5080000  
C 15.0910000   13.7270000   22.7090000  
N 16.0170000   14.7230000   22.7240000  
O 13.2720000   12.3180000   23.4350000  
C 14.1770000   13.2930000   23.7900000  
O 14.2090000   13.7650000   24.8930000  
O 18.5620000   16.9550000   19.2320000  
O 17.8440000   14.7600000   17.5930000  
H 14.6750000   12.2220000   21.2310000  
H 13.1550000   12.2520000   22.4700000  
H 16.2270000   15.2730000   23.5580000  
H 18.5880000   17.7140000   19.8730000  
H 18.4360000   15.4590000   17.3660000  
C 17.7700000   17.0280000   22.1200000  
C 19.1000000   17.1660000   22.5660000  
C 19.4940000   18.0350000   23.5360000  
C 18.6620000   18.8350000   24.3220000  
C 17.2950000   18.8050000   23.8430000  
C 16.8540000   17.8440000   22.8440000  
C 20.3100000   16.5700000   22.1550000  
C 21.3210000   16.9190000   23.0880000  
N 20.8270000   17.9050000   23.8950000  
O 22.9910000   15.5380000   22.2350000  
C 22.6370000   16.3550000   23.2510000  
O 23.4080000   16.6600000   24.1490000  
O 16.3610000   19.6580000   24.3450000  
O 15.5590000   17.7820000   22.4660000  
H 20.5190000   15.8990000   21.3320000  
H 22.2720000   15.5890000   21.5780000  
H 21.2380000   18.2260000   24.7680000  
H 16.6400000   20.0120000   25.2140000  
H 15.0480000   18.5930000   22.5540000  
C 19.1700000   19.5990000   25.5520000  
C 19.1800000   20.9710000   25.5850000  
C 19.8410000   21.6200000   26.6000000  
C 20.4880000   20.9780000   27.6470000  
C 20.3840000   19.5880000   27.6680000  
C 19.7640000   18.8850000   26.6000000  
C 18.6270000   21.9240000   24.7180000  
C 18.9640000   23.1830000   25.2890000  
N 19.6400000   22.9320000   26.5150000  
O 17.7580000   24.4110000   23.6140000  
C 18.5810000   24.4770000   24.6530000  
O 18.8510000   25.5050000   25.2030000  
O 20.9660000   18.9690000   28.6910000  
O 19.6040000   17.5540000   26.6420000  
H 18.0990000   21.7180000   23.7660000  
H 17.4920000   23.5010000   23.6200000  
H 19.9330000   23.6230000   27.1670000  
H 21.3120000   18.1140000   28.4080000  
H 19.1100000   17.2340000   25.8520000  
H 20.7970000   21.5380000   28.4870000  
