78
110 
C 18.5390000    9.7700000   18.6190000  
C 17.3410000    8.9460000   18.5620000  
C 16.2400000    9.6010000   19.0410000  
C 16.2880000   10.9170000   19.4100000  
C 17.4240000   11.7540000   19.5430000  
C 18.5760000   11.0640000   19.2100000  
C 14.8330000    9.2390000   18.9950000  
C 14.1120000   10.3460000   19.4910000  
N 15.0010000   11.3960000   19.6970000  
O 11.8650000    9.5020000   19.2850000  
C 12.6670000   10.5020000   19.6810000  
O 12.1500000   11.4560000   20.2270000  
O 19.7880000   11.7800000   19.3700000  
O 19.7030000    9.2690000   18.1610000  
H 17.2820000    8.0640000   17.9340000  
H 14.3470000    8.3170000   18.6650000  
H 12.3290000    8.7210000   19.0590000  
H 14.7570000   12.3470000   19.8330000  
H 20.4290000   11.4030000   18.7810000  
H 19.4860000    8.5460000   17.5650000  
C 17.5110000   13.1730000   20.1480000  
C 17.8580000   13.4270000   21.5410000  
C 17.8410000   14.6690000   22.0670000  
C 17.4450000   15.8170000   21.3500000  
C 17.0030000   15.6530000   20.0080000  
C 17.0450000   14.3220000   19.4570000  
C 18.3330000   12.5550000   22.5730000  
C 18.7070000   13.3810000   23.6470000  
N 18.2540000   14.7080000   23.3400000  
O 19.8880000   11.7110000   24.8670000  
C 19.4720000   13.0180000   24.8420000  
O 19.7630000   13.8170000   25.7420000  
O 16.5560000   16.7320000   19.3420000  
O 16.6120000   14.1490000   18.1620000  
H 18.5070000   11.4850000   22.4900000  
H 19.6990000   11.4490000   23.9340000  
H 18.2740000   15.4060000   24.1000000  
H 16.5670000   17.5470000   19.9000000  
H 16.2850000   15.0420000   17.9480000  
C 17.3770000   17.1580000   22.0490000  
C 18.5730000   17.7290000   22.5460000  
C 18.5760000   18.9460000   23.0630000  
C 17.4810000   19.8240000   23.2190000  
C 16.2380000   19.2970000   22.7330000  
C 16.2350000   17.9930000   22.1080000  
C 19.9680000   17.2440000   22.6100000  
C 20.7050000   18.3500000   23.0550000  
N 19.8300000   19.4430000   23.2240000  
O 22.7420000   17.0420000   23.2200000  
C 22.1110000   18.2510000   23.4430000  
O 22.6780000   19.2390000   23.9110000  
O 15.0750000   19.9070000   23.1170000  
O 14.9920000   17.4730000   21.7890000  
H 20.3470000   16.1920000   22.5260000  
H 22.0630000   16.4900000   22.7720000  
H 20.1360000   20.3630000   23.5810000  
H 15.2660000   20.4480000   23.8590000  
H 14.3590000   18.1470000   21.8540000  
C 17.5860000   21.1810000   23.8900000  
C 17.1530000   22.3390000   23.1710000  
C 17.1780000   23.5610000   23.7960000  
C 17.6150000   23.8060000   25.0970000  
C 17.9830000   22.6280000   25.7970000  
C 18.0290000   21.3410000   25.1910000  
C 16.6180000   22.5180000   21.8920000  
C 16.1980000   23.8410000   21.8130000  
N 16.5950000   24.4500000   23.0080000  
O 15.4780000   23.8830000   19.5280000  
C 15.4860000   24.5750000   20.7410000  
O 14.9370000   25.6300000   20.8580000  
O 18.4200000   22.6840000   27.0510000  
O 18.2910000   20.1950000   25.9790000  
H 16.6120000   21.8400000   21.1040000  
H 16.0470000   23.0960000   19.7650000  
H 16.4780000   25.3950000   23.2210000  
H 18.9570000   21.8950000   27.0600000  
H 18.0100000   19.4160000   25.5260000  
H 17.6740000   24.6920000   25.6490000  
