78
110 
C 11.8990000   21.4020000   23.0770000  
C 10.8130000   21.1760000   22.1480000  
C 10.9610000   20.0590000   21.2770000  
C 12.1320000   19.3930000   21.2200000  
C 13.2190000   19.6290000   22.0310000  
C 13.0840000   20.6510000   23.0060000  
C 10.0780000   19.3630000   20.3460000  
C 10.8310000   18.4430000   19.6450000  
N 12.1240000   18.4620000   20.2380000  
O  9.4400000   18.0760000   17.7660000  
C 10.5290000   17.7030000   18.4290000  
O 11.2480000   16.8370000   17.9400000  
O 14.0200000   20.8420000   23.9120000  
O 11.9210000   22.3890000   24.0260000  
H  9.9510000   21.8140000   22.2280000  
H  9.0700000   19.6090000   20.0450000  
H  9.0870000   18.8430000   18.2130000  
H 12.8750000   17.9100000   19.9160000  
H 14.6960000   20.2480000   23.6630000  
H 12.7820000   22.5780000   24.2440000  
C 14.3890000   18.6560000   22.0380000  
C 15.3180000   18.5960000   20.9780000  
C 16.3740000   17.6380000   21.0310000  
C 16.5550000   16.6910000   21.9880000  
C 15.5630000   16.6940000   23.0480000  
C 14.5130000   17.7070000   23.0580000  
C 15.5970000   19.3680000   19.8070000  
C 16.7020000   18.8180000   19.1520000  
N 17.2520000   17.8380000   20.0000000  
O 16.9180000   20.3390000   17.2860000  
C 17.4100000   19.3260000   17.9100000  
O 18.4170000   18.8060000   17.5080000  
O 15.6650000   15.7460000   24.0330000  
O 13.4880000   17.5190000   23.9900000  
H 14.9410000   20.1420000   19.4490000  
H 16.1990000   20.6850000   17.8250000  
H 18.0800000   17.2550000   19.8780000  
H 16.5640000   15.3270000   23.8530000  
H 13.8400000   16.8200000   24.7010000  
C 17.7590000   15.8390000   22.0320000  
C 18.7530000   16.1260000   22.9430000  
C 20.0710000   15.5650000   22.9420000  
C 20.4960000   14.5940000   22.0140000  
C 19.5010000   14.1810000   21.1280000  
C 18.1970000   14.8050000   21.0960000  
C 18.8010000   17.1810000   23.9870000  
C 20.0780000   17.1940000   24.4930000  
N 20.8960000   16.1660000   23.8890000  
O 19.5840000   18.9680000   25.9680000  
C 20.5840000   18.0680000   25.5710000  
O 21.7040000   18.0490000   25.9650000  
O 19.7180000   13.1560000   20.2900000  
O 17.2630000   14.4510000   20.1620000  
H 17.9900000   17.8060000   24.2420000  
H 18.7080000   18.7160000   25.6770000  
H 21.8260000   15.8340000   24.1170000  
H 20.4860000   12.7050000   20.6490000  
H 17.7010000   13.9890000   19.4390000  
C 21.8310000   14.0110000   21.8940000  
C 22.0710000   12.6400000   22.3420000  
C 23.2780000   12.0580000   22.3420000  
C 24.4080000   12.7750000   21.9270000  
C 24.2460000   14.1170000   21.6270000  
C 22.9700000   14.7660000   21.5980000  
C 21.0840000   11.7250000   22.8570000  
C 21.8240000   10.5620000   23.2380000  
N 23.1860000   10.7150000   22.7640000  
O 20.0020000    9.2580000   23.8940000  
C 21.3000000    9.2790000   23.8230000  
O 21.9410000    8.3210000   24.1230000  
O 25.3860000   14.8490000   21.3510000  
O 22.9470000   16.1060000   21.4020000  
H 20.0560000   11.9480000   22.9860000  
H 19.7010000   10.0340000   23.4670000  
H 23.9750000   10.1420000   23.0470000  
H 25.0720000   15.7410000   21.4900000  
H 22.0090000   16.3980000   21.5670000  
H 25.4280000   12.4190000   21.7510000  
