78
110 
C 21.4440000   11.3720000   25.8870000  
C 20.9350000   10.1460000   25.3570000  
C 20.0260000   10.2100000   24.3630000  
C 19.6270000   11.4030000   23.8910000  
C 20.0230000   12.6890000   24.3220000  
C 20.8910000   12.6080000   25.4660000  
C 19.2770000    9.1770000   23.6950000  
C 18.4230000    9.8080000   22.8090000  
N 18.6990000   11.1820000   22.9110000  
O 17.4010000    7.8110000   22.0240000  
C 17.5020000    9.1110000   21.9190000  
O 16.8740000    9.7280000   21.1020000  
O 21.1650000   13.7720000   26.2220000  
O 22.3820000   11.2650000   26.8350000  
H 21.2850000    9.2230000   25.7510000  
H 19.3880000    8.1110000   23.8360000  
H 18.2030000    7.5930000   22.6040000  
H 18.1780000   11.9280000   22.4270000  
H 20.4630000   14.4540000   25.9970000  
H 23.0550000   11.9070000   26.5990000  
C 19.3830000   13.9280000   23.8240000  
C 17.9610000   14.0600000   23.8180000  
C 17.3680000   15.1500000   23.2450000  
C 18.0610000   16.2180000   22.6630000  
C 19.4590000   16.1590000   22.7450000  
C 20.1500000   15.0140000   23.3750000  
C 16.8740000   13.1870000   24.2450000  
C 15.6730000   13.7990000   23.9290000  
N 15.9760000   15.0800000   23.3600000  
O 14.2750000   12.1530000   24.8870000  
C 14.3300000   13.3330000   24.2330000  
O 13.3890000   14.0130000   23.9390000  
O 20.2370000   17.1060000   22.1660000  
O 21.5100000   14.9670000   23.3510000  
H 16.9570000   12.1900000   24.7130000  
H 15.2200000   11.9610000   25.0750000  
H 15.3890000   15.7630000   22.8970000  
H 19.6500000   17.8020000   21.7550000  
H 21.9080000   15.7720000   23.0150000  
C 17.3570000   17.2760000   21.9120000  
C 17.4060000   18.6130000   22.3920000  
C 16.9010000   19.6460000   21.6650000  
C 16.3150000   19.5020000   20.3740000  
C 16.2820000   18.1780000   19.8840000  
C 16.8050000   17.0890000   20.6000000  
C 17.8670000   19.2300000   23.6220000  
C 17.6630000   20.5620000   23.5400000  
N 17.0800000   20.8570000   22.3070000  
O 18.8500000   21.0730000   25.6360000  
C 18.2380000   21.6240000   24.5020000  
O 18.0950000   22.8500000   24.4090000  
O 15.5930000   17.8250000   18.7460000  
O 16.9160000   15.8050000   19.9630000  
H 18.3730000   18.7120000   24.4630000  
H 18.5720000   20.1060000   25.6950000  
H 17.0630000   21.7540000   21.8830000  
H 15.3190000   18.6990000   18.5060000  
H 16.5660000   15.9100000   19.0820000  
C 15.5430000   20.5680000   19.6250000  
C 15.7160000   20.9140000   18.2800000  
C 15.0770000   21.9560000   17.5780000  
C 13.9830000   22.6340000   18.1880000  
C 13.7290000   22.3090000   19.5280000  
C 14.4810000   21.2800000   20.2360000  
C 16.6000000   20.3220000   17.2730000  
C 16.4260000   20.9730000   16.0850000  
N 15.5110000   22.0730000   16.2520000  
O 18.1580000   19.7800000   15.0410000  
C 17.2610000   20.7410000   14.8990000  
O 17.0740000   21.3480000   13.8600000  
O 12.6140000   22.8650000   20.1410000  
O 14.2740000   21.0410000   21.5640000  
H 17.1460000   19.3960000   17.4140000  
H 18.0490000   19.3850000   15.9350000  
H 15.2510000   22.7320000   15.4990000  
H 12.6520000   22.4680000   21.0100000  
H 15.1040000   20.6460000   22.0410000  
H 13.3860000   23.4030000   17.7370000  
