78
110 
C 19.6730000   11.7710000   27.3880000  
C 20.8810000   11.1270000   27.0110000  
C 21.3890000   11.4910000   25.7700000  
C 20.8180000   12.4330000   25.0450000  
C 19.5680000   13.0790000   25.3430000  
C 19.0520000   12.7040000   26.5890000  
C 22.5620000   11.0670000   25.0510000  
C 22.5770000   11.7500000   23.8440000  
N 21.4790000   12.6410000   23.8790000  
O 24.2580000   10.5140000   22.7740000  
C 23.3830000   11.5380000   22.7050000  
O 23.3070000   12.1930000   21.6600000  
O 17.8490000   13.3790000   26.8970000  
O 19.0160000   11.3830000   28.4710000  
H 21.4170000   10.4040000   27.6860000  
H 23.0530000   10.1260000   25.2010000  
H 24.4190000   10.3690000   23.7000000  
H 21.1390000   13.2520000   23.1310000  
H 17.6330000   14.0110000   26.2810000  
H 18.4240000   12.0900000   28.5020000  
C 18.8840000   14.1010000   24.4750000  
C 17.6860000   13.8690000   23.8100000  
C 17.1560000   14.7800000   22.9320000  
C 17.7940000   16.0180000   22.5340000  
C 19.1000000   16.2240000   23.1540000  
C 19.5820000   15.3350000   24.1850000  
C 16.7170000   12.7950000   23.9120000  
C 15.7160000   12.9830000   22.9490000  
N 15.9580000   14.2380000   22.3640000  
O 14.3240000   10.9950000   23.3390000  
C 14.4540000   12.1910000   22.7190000  
O 13.5340000   12.4770000   22.0000000  
O 19.6290000   17.4270000   22.9940000  
O 20.7500000   15.7000000   24.8450000  
H 16.8110000   11.8310000   24.5120000  
H 15.1050000   11.0580000   23.8970000  
H 15.4430000   14.6500000   21.6320000  
H 19.1810000   17.8040000   22.2050000  
H 20.7870000   16.6180000   24.6880000  
C 17.3500000   16.9800000   21.4980000  
C 16.1150000   17.6760000   21.6690000  
C 15.6510000   18.5490000   20.6750000  
C 16.2380000   18.7390000   19.4100000  
C 17.4400000   18.0790000   19.1730000  
C 17.9030000   17.2070000   20.1880000  
C 15.1200000   17.8370000   22.7400000  
C 14.1440000   18.7820000   22.2590000  
N 14.4930000   19.1870000   20.9780000  
O 12.9570000   18.7640000   24.3380000  
C 12.9850000   19.2750000   23.0610000  
O 12.1570000   20.0950000   22.7260000  
O 18.0670000   18.1230000   17.9910000  
O 19.0090000   16.5580000   19.8560000  
H 15.1670000   17.4980000   23.7860000  
H 13.5890000   18.0850000   24.3320000  
H 14.0930000   19.8820000   20.4350000  
H 17.6160000   18.7630000   17.3930000  
H 19.1300000   16.5670000   18.9130000  
C 15.5800000   19.6800000   18.4850000  
C 15.9580000   20.9790000   18.2800000  
C 15.2240000   21.8980000   17.5690000  
C 13.9400000   21.5170000   17.1510000  
C 13.5270000   20.1820000   17.2150000  
C 14.3450000   19.2910000   17.9230000  
C 17.1730000   21.6680000   18.7070000  
C 17.0460000   22.9620000   18.1370000  
N 15.8220000   23.1190000   17.4610000  
O 19.2050000   23.5090000   18.8160000  
C 18.1280000   23.8760000   18.1120000  
O 18.1620000   24.8840000   17.4320000  
O 12.3760000   19.7180000   16.6260000  
O 14.0360000   17.9800000   17.9590000  
H 18.0150000   21.2360000   19.2400000  
H 19.0290000   22.7540000   19.3140000  
H 15.4490000   23.9950000   17.1990000  
H 11.9930000   18.8720000   17.0530000  
H 14.7500000   17.5400000   18.4860000  
H 13.3310000   22.1590000   16.5750000  
