78
110 
C 11.2160000   19.1300000   18.4500000  
C 10.5300000   18.0840000   17.8090000  
C 11.0670000   16.7520000   18.0270000  
C 12.3030000   16.6000000   18.5690000  
C 13.0870000   17.6020000   19.2440000  
C 12.5030000   18.9140000   19.1470000  
C 10.5560000   15.4810000   17.6420000  
C 11.5710000   14.5710000   17.9120000  
N 12.5770000   15.2920000   18.5610000  
O 10.4620000   12.7090000   17.0010000  
C 11.5850000   13.1640000   17.5510000  
O 12.5320000   12.4530000   17.8090000  
O 12.9800000   19.9700000   19.8670000  
O 10.7100000   20.4070000   18.3050000  
H  9.5270000   18.1950000   17.3430000  
H  9.6230000   15.2700000   17.1740000  
H  9.8420000   13.3850000   16.7380000  
H 13.4450000   14.8620000   18.9600000  
H 12.3900000   20.7110000   19.7380000  
H  9.8060000   20.3400000   18.1160000  
C 14.2210000   17.2870000   20.1270000  
C 15.5430000   17.0770000   19.6190000  
C 16.6230000   16.8950000   20.3940000  
C 16.5260000   16.9300000   21.8190000  
C 15.2950000   17.1330000   22.4240000  
C 14.1430000   17.3200000   21.5780000  
C 16.0360000   16.9180000   18.2580000  
C 17.4310000   16.8900000   18.2950000  
N 17.8240000   16.7630000   19.6280000  
O 17.6730000   17.1720000   15.9740000  
C 18.3330000   16.9940000   17.1320000  
O 19.5550000   16.8640000   17.1110000  
O 15.1620000   17.0960000   23.7400000  
O 12.9100000   17.4020000   22.1460000  
H 15.4000000   16.9540000   17.3960000  
H 16.7060000   17.3430000   16.0970000  
H 18.7220000   17.0040000   20.0450000  
H 15.9330000   16.7240000   24.1880000  
H 13.0010000   17.3270000   23.1330000  
C 17.7600000   16.6500000   22.6670000  
C 18.9460000   17.3850000   22.4880000  
C 20.0920000   16.9480000   23.0640000  
C 20.1990000   15.9290000   24.0410000  
C 19.0690000   15.1110000   24.1290000  
C 17.8620000   15.4780000   23.4730000  
C 19.3510000   18.5810000   21.7930000  
C 20.6730000   18.7910000   21.9220000  
N 21.1300000   17.8120000   22.8650000  
O 20.7300000   20.5110000   20.3500000  
C 21.4920000   19.8400000   21.2250000  
O 22.6820000   19.9850000   21.3560000  
O 19.0810000   13.9240000   24.8570000  
O 16.8460000   14.5100000   23.5200000  
H 18.6330000   19.1800000   21.1930000  
H 19.7800000   20.2900000   20.5010000  
H 22.0280000   17.7550000   23.3790000  
H 20.0360000   13.8060000   25.2050000  
H 17.2320000   13.6600000   23.8980000  
C 21.5140000   15.6250000   24.6680000  
C 21.6050000   15.5830000   26.1000000  
C 22.7880000   15.2930000   26.7530000  
C 23.9820000   14.8970000   26.1100000  
C 23.9120000   14.9040000   24.7140000  
C 22.7040000   15.2400000   24.0420000  
C 20.6110000   15.5900000   27.1460000  
C 21.2690000   15.3700000   28.3450000  
N 22.6230000   15.3150000   28.1050000  
O 19.3500000   15.2680000   29.7980000  
C 20.7260000   15.1690000   29.6800000  
O 21.3720000   14.9260000   30.6070000  
O 24.9560000   14.4760000   23.9660000  
O 22.4950000   15.0180000   22.6530000  
H 19.5730000   15.7520000   26.9600000  
H 18.9170000   15.6090000   29.0570000  
H 23.3570000   15.0960000   28.7750000  
H 24.5750000   14.1700000   23.0830000  
H 21.5860000   15.2990000   22.4080000  
H 24.9400000   14.6160000   26.5110000  
