78
110 
C 11.1600000   19.9090000   19.2590000  
C 10.4440000   18.9050000   18.6380000  
C 10.8970000   17.5380000   18.7600000  
C 12.1310000   17.2900000   19.3110000  
C 12.9650000   18.2590000   19.8770000  
C 12.4710000   19.5910000   19.7240000  
C 10.4470000   16.3400000   18.1280000  
C 11.4370000   15.3500000   18.3720000  
N 12.5010000   16.0210000   19.0460000  
O 10.6890000   13.5570000   17.1490000  
C 11.6570000   13.9620000   17.9580000  
O 12.5860000   13.2910000   18.3660000  
O 13.2140000   20.6490000   20.0010000  
O 10.7650000   21.2370000   19.0700000  
H  9.4670000   19.0390000   18.1730000  
H  9.5950000   16.1980000   17.4870000  
H 10.1380000   14.3020000   17.0450000  
H 13.3200000   15.5740000   19.3060000  
H 12.5470000   21.4310000   20.1610000  
H  9.7950000   21.2780000   18.8600000  
C 14.2970000   17.9250000   20.4340000  
C 15.3630000   17.3610000   19.7380000  
C 16.4840000   16.9150000   20.2950000  
C 16.7510000   16.9910000   21.6560000  
C 15.6740000   17.4990000   22.4090000  
C 14.4990000   18.0620000   21.8530000  
C 15.4800000   17.1450000   18.2940000  
C 16.7730000   16.6490000   18.1210000  
N 17.4770000   16.5300000   19.3740000  
O 16.7170000   16.6280000   15.8040000  
C 17.3870000   16.1870000   16.8270000  
O 18.3760000   15.5190000   16.6280000  
O 15.8870000   17.6140000   23.7440000  
O 13.4950000   18.5200000   22.6690000  
H 14.7070000   17.3870000   17.5850000  
H 16.0310000   17.1960000   16.2520000  
H 18.4160000   16.0850000   19.6270000  
H 16.7520000   17.2190000   23.9470000  
H 13.6610000   18.2270000   23.5930000  
C 18.0030000   16.5090000   22.3100000  
C 18.9490000   17.4300000   22.7760000  
C 20.1330000   16.9960000   23.4200000  
C 20.4910000   15.6290000   23.4160000  
C 19.5030000   14.6910000   22.9790000  
C 18.2790000   15.1240000   22.4210000  
C 19.0490000   18.8610000   22.8030000  
C 20.2460000   19.2140000   23.4440000  
N 20.9350000   18.0390000   23.8000000  
O 19.9110000   21.4930000   22.9940000  
C 20.7900000   20.5280000   23.5390000  
O 21.8780000   20.7160000   24.0580000  
O 19.7700000   13.3810000   23.0990000  
O 17.3410000   14.1470000   22.0220000  
H 18.3490000   19.5190000   22.3090000  
H 19.2480000   20.8390000   22.6360000  
H 21.9420000   18.0030000   24.0740000  
H 20.5110000   13.2990000   23.6780000  
H 17.7300000   13.2630000   22.3060000  
C 21.8040000   15.1810000   23.9500000  
C 21.8640000   14.7580000   25.3410000  
C 22.9760000   14.1590000   25.8430000  
C 24.1790000   14.0860000   25.1280000  
C 24.1700000   14.3740000   23.7600000  
C 22.9030000   14.8860000   23.1760000  
C 20.8390000   14.5580000   26.3040000  
C 21.4620000   13.9640000   27.4290000  
N 22.8610000   13.8450000   27.1640000  
O 19.5710000   13.7680000   28.9240000  
C 20.8700000   13.5720000   28.7610000  
O 21.5730000   13.0360000   29.5640000  
O 25.2470000   14.2530000   22.9140000  
O 22.9180000   15.2320000   21.8810000  
H 19.8060000   14.8220000   26.1880000  
H 19.2680000   14.0980000   28.1140000  
H 23.5750000   13.3760000   27.6900000  
H 24.8800000   14.4000000   21.9880000  
H 22.0780000   15.6750000   21.7610000  
H 25.1020000   13.7430000   25.5720000  
