78
110 
C 15.1370000   16.6390000   28.8030000  
C 14.9540000   17.9440000   29.2490000  
C 14.8230000   18.9310000   28.2420000  
C 15.0590000   18.6250000   26.9760000  
C 15.2890000   17.3090000   26.4800000  
C 15.2930000   16.3190000   27.4260000  
C 14.4780000   20.3580000   28.3400000  
C 14.6970000   20.7540000   27.0130000  
N 15.0690000   19.7700000   26.1890000  
O 14.1310000   23.0290000   27.2590000  
C 14.6010000   22.1090000   26.3890000  
O 14.9160000   22.3620000   25.2470000  
O 15.6570000   15.0140000   27.0690000  
O 15.1370000   15.7010000   29.7300000  
H 14.7750000   18.1930000   30.3120000  
H 14.3600000   20.9700000   29.2140000  
H 14.1120000   22.4790000   28.0250000  
H 15.2990000   19.8690000   25.1970000  
H 16.1130000   15.0600000   26.2280000  
H 15.3990000   14.8670000   29.2430000  
C 15.6510000   17.0990000   25.0440000  
C 16.8130000   17.6980000   24.5630000  
C 17.1800000   17.5730000   23.2660000  
C 16.4920000   16.7910000   22.3280000  
C 15.2620000   16.2230000   22.7620000  
C 14.9410000   16.2810000   24.1580000  
C 17.7440000   18.6250000   25.1640000  
C 18.7030000   18.9370000   24.1860000  
N 18.3730000   18.2040000   23.0560000  
O 19.7410000   20.5260000   25.5500000  
C 19.8420000   19.8510000   24.4020000  
O 20.7510000   20.0670000   23.5720000  
O 14.5550000   15.4520000   21.8500000  
O 13.8560000   15.5020000   24.5220000  
H 17.6660000   19.0350000   26.1500000  
H 18.7340000   20.6150000   25.6740000  
H 18.8790000   18.3490000   22.1950000  
H 15.0530000   15.4560000   21.0130000  
H 13.5200000   15.8960000   25.3710000  
C 17.0870000   16.5310000   21.0020000  
C 17.9820000   15.5030000   20.8800000  
C 18.6440000   15.2460000   19.6710000  
C 18.6190000   16.0050000   18.5060000  
C 17.8070000   17.1400000   18.6890000  
C 17.1270000   17.4270000   19.9230000  
C 18.2930000   14.4000000   21.7590000  
C 19.0060000   13.4530000   21.0200000  
N 19.2460000   14.0240000   19.7330000  
O 19.1910000   11.7230000   22.7960000  
C 19.4000000   12.0360000   21.4910000  
O 19.7240000   11.1820000   20.6820000  
O 17.6650000   17.9810000   17.5870000  
O 16.3560000   18.5600000   19.9240000  
H 17.9380000   14.2840000   22.7830000  
H 18.5740000   12.3790000   23.2040000  
H 19.6810000   13.5160000   19.0160000  
H 17.9320000   17.5090000   16.7760000  
H 16.7000000   19.1220000   19.2020000  
C 19.3830000   15.6240000   17.2760000  
C 19.2300000   14.4250000   16.5540000  
C 19.8290000   14.1540000   15.3550000  
C 20.6410000   15.1060000   14.8020000  
C 20.9140000   16.3130000   15.4870000  
C 20.2970000   16.5400000   16.7270000  
C 18.2510000   13.4190000   16.7610000  
C 18.3350000   12.5840000   15.6610000  
N 19.4090000   12.9610000   14.8310000  
O 16.8240000   10.9600000   16.5180000  
C 17.7570000   11.2190000   15.5570000  
O 18.1200000   10.4490000   14.6780000  
O 21.7930000   17.2040000   14.9220000  
O 20.6450000   17.7300000   17.3030000  
H 17.5930000   13.1750000   17.6240000  
H 16.6770000   11.7600000   16.9640000  
H 19.6420000   12.4620000   13.9760000  
H 21.6060000   17.9770000   15.5270000  
H 20.2240000   17.7480000   18.1980000  
H 21.0730000   14.9610000   13.7830000  
