78
110 
C 20.2230000   10.0420000   24.7870000  
C 20.6980000    9.2870000   23.6400000  
C 20.4250000    9.8280000   22.3720000  
C 19.7080000   11.0170000   22.2170000  
C 19.2780000   11.8080000   23.3010000  
C 19.4990000   11.2840000   24.6020000  
C 21.0350000    9.5600000   21.0660000  
C 20.4900000   10.5200000   20.1910000  
N 19.6220000   11.3980000   20.9160000  
O 21.7980000    9.8550000   18.3650000  
C 20.8170000   10.6590000   18.7780000  
O 20.3450000   11.5270000   18.0250000  
O 19.1400000   12.0240000   25.6620000  
O 20.5180000    9.6360000   26.0410000  
H 21.3730000    8.4130000   23.7140000  
H 21.7830000    8.8160000   20.7920000  
H 22.0820000    9.5210000   19.2210000  
H 19.0420000   12.1420000   20.5630000  
H 18.4340000   12.6430000   25.3460000  
H 20.0560000   10.4150000   26.5500000  
C 18.8050000   13.1840000   23.0310000  
C 17.4300000   13.4610000   23.1270000  
C 16.9540000   14.6480000   22.6310000  
C 17.7370000   15.7700000   22.2080000  
C 19.1850000   15.5100000   22.1070000  
C 19.6840000   14.2060000   22.4630000  
C 16.2140000   12.7210000   23.5060000  
C 15.1100000   13.6020000   23.3630000  
N 15.5680000   14.7860000   22.6850000  
O 13.6830000   12.0030000   24.1630000  
C 13.7430000   13.2370000   23.6210000  
O 12.7710000   13.9850000   23.4430000  
O 19.9040000   16.5330000   21.5660000  
O 21.0320000   14.0460000   22.2190000  
H 16.2400000   11.7840000   24.0510000  
H 14.6140000   11.7700000   24.0720000  
H 15.0220000   15.6690000   22.4590000  
H 19.4940000   17.4070000   21.8270000  
H 21.4070000   14.9620000   22.1340000  
C 17.0400000   16.9800000   21.7010000  
C 16.2260000   17.8040000   22.4770000  
C 15.6800000   18.9670000   22.0750000  
C 16.0370000   19.5150000   20.8420000  
C 16.8360000   18.7330000   19.9950000  
C 17.3290000   17.4410000   20.3940000  
C 15.9900000   17.7350000   23.9160000  
C 15.2690000   18.8890000   24.3070000  
N 15.1470000   19.6500000   23.1780000  
O 15.3300000   18.4140000   26.6860000  
C 14.9640000   19.2710000   25.6790000  
O 14.5050000   20.3300000   25.8990000  
O 17.1690000   19.1410000   18.6740000  
O 17.9050000   16.6070000   19.4180000  
H 16.4020000   16.9880000   24.5930000  
H 15.9890000   17.7970000   26.3290000  
H 14.6730000   20.5260000   23.0940000  
H 16.8240000   20.0250000   18.5290000  
H 18.0330000   17.0550000   18.6080000  
C 15.5720000   20.9490000   20.4910000  
C 16.4090000   22.0130000   20.1110000  
C 16.0190000   23.2160000   19.6430000  
C 14.6650000   23.5430000   19.5650000  
C 13.7830000   22.5570000   20.0070000  
C 14.1750000   21.2300000   20.3300000  
C 17.8510000   21.9910000   20.1540000  
C 18.2580000   23.2530000   19.6920000  
N 17.1330000   24.0460000   19.5360000  
O 20.5110000   22.7430000   19.8970000  
C 19.6610000   23.7010000   19.5980000  
O 19.9760000   24.7900000   19.2160000  
O 12.4830000   22.9000000   20.3070000  
O 13.2530000   20.2480000   20.6000000  
H 18.5010000   21.2370000   20.4840000  
H 19.9400000   22.0160000   20.2340000  
H 17.1700000   24.9780000   19.0820000  
H 12.0260000   22.1100000   20.6430000  
H 13.7860000   19.3920000   20.7010000  
H 14.3340000   24.5260000   19.2020000  
