78
110 
C 14.9430000   13.4460000   15.4040000  
C 13.8360000   12.6840000   15.8120000  
C 13.3710000   12.7720000   17.1160000  
C 13.9610000   13.5910000   17.9790000  
C 15.1470000   14.2710000   17.7170000  
C 15.6080000   14.2810000   16.3740000  
C 12.3690000   12.0130000   17.8450000  
C 12.4630000   12.3700000   19.1890000  
N 13.4780000   13.3590000   19.2810000  
O 10.8800000   10.8510000   20.1180000  
C 11.7440000   11.8360000   20.3420000  
O 12.0090000   12.1040000   21.5120000  
O 16.5760000   15.1550000   16.0030000  
O 15.3390000   13.3350000   14.0970000  
H 13.4730000   11.7930000   15.2110000  
H 11.6480000   11.2930000   17.3860000  
H 10.8150000   10.8040000   19.1610000  
H 13.8250000   13.7240000   20.2090000  
H 16.8160000   14.9940000   15.0030000  
H 14.5570000   13.0300000   13.5250000  
C 15.8150000   15.0830000   18.7930000  
C 16.9090000   14.4740000   19.5100000  
C 17.5340000   15.0940000   20.5610000  
C 17.0770000   16.2810000   21.1600000  
C 15.9200000   16.8080000   20.5840000  
C 15.2640000   16.2170000   19.4930000  
C 17.5910000   13.2540000   19.2790000  
C 18.6720000   13.2630000   20.2190000  
N 18.5500000   14.3450000   21.0370000  
O 19.7890000   11.4190000   19.2550000  
C 19.8360000   12.3730000   20.1940000  
O 20.7150000   12.5410000   21.0340000  
O 15.3610000   17.8870000   21.1190000  
O 14.1650000   16.9180000   19.0540000  
H 17.4510000   12.4650000   18.5460000  
H 18.8950000   11.5100000   18.8710000  
H 19.2750000   14.5980000   21.6530000  
H 15.8580000   18.0440000   21.9260000  
H 14.0060000   17.6930000   19.6700000  
C 17.8050000   16.8320000   22.3000000  
C 19.1310000   17.3390000   22.2930000  
C 19.6660000   17.9260000   23.3890000  
C 19.0540000   17.9680000   24.6390000  
C 17.8390000   17.2940000   24.7960000  
C 17.2630000   16.7180000   23.6440000  
C 20.0750000   17.5640000   21.2610000  
C 21.0650000   18.4390000   21.7180000  
N 20.8090000   18.5840000   23.1280000  
O 22.1570000   18.8830000   19.5900000  
C 22.1590000   19.1190000   20.9630000  
O 22.9320000   19.8760000   21.4690000  
O 17.3180000   17.3910000   25.9750000  
O 16.0850000   16.0950000   23.8370000  
H 20.1060000   17.2920000   20.1760000  
H 21.4100000   18.3650000   19.2230000  
H 21.2830000   19.2410000   23.6740000  
H 17.9250000   17.8360000   26.6270000  
H 15.9670000   16.0480000   24.7760000  
C 19.7230000   18.6850000   25.7450000  
C 18.9810000   19.8480000   26.2630000  
C 19.4530000   20.5280000   27.4000000  
C 20.7210000   20.1780000   27.9820000  
C 21.4370000   19.1060000   27.4660000  
C 20.9610000   18.3320000   26.3330000  
C 17.7840000   20.5510000   25.7800000  
C 17.5250000   21.6100000   26.7050000  
N 18.5620000   21.5150000   27.7380000  
O 15.9080000   22.8250000   25.5020000  
C 16.6340000   22.7250000   26.6480000  
O 16.5790000   23.5520000   27.5400000  
O 22.5110000   18.6720000   28.1850000  
O 21.5860000   17.1410000   25.8500000  
H 17.1430000   20.2120000   24.9490000  
H 16.1830000   22.0020000   25.0420000  
H 18.7190000   22.2110000   28.4860000  
H 22.9160000   17.9380000   27.7230000  
H 20.9960000   16.6980000   25.1600000  
H 21.1870000   20.7100000   28.8470000  
