78
110 
C 13.8310000   20.6870000   26.5300000  
C 12.6920000   21.2710000   25.9520000  
C 12.2820000   20.7990000   24.6890000  
C 12.9030000   19.8140000   24.0450000  
C 13.9980000   19.1460000   24.5420000  
C 14.4780000   19.6520000   25.8240000  
C 11.0220000   20.9540000   23.9650000  
C 11.1230000   20.1760000   22.8160000  
N 12.3110000   19.5010000   22.8690000  
O  8.8310000   20.4840000   22.1000000  
C 10.0690000   20.0050000   21.8070000  
O 10.4130000   19.4580000   20.7660000  
O 15.6050000   19.0530000   26.3010000  
O 14.2530000   21.0790000   27.7200000  
H 12.1300000   22.1150000   26.4320000  
H 10.3000000   21.7350000   24.2020000  
H  8.9670000   20.7920000   23.0460000  
H 12.7490000   18.8530000   22.1570000  
H 15.9310000   18.3630000   25.7190000  
H 15.1680000   20.6200000   27.8610000  
C 14.7310000   18.1760000   23.7350000  
C 15.6980000   18.5360000   22.7490000  
C 16.2450000   17.5160000   22.0260000  
C 16.1180000   16.1580000   22.2700000  
C 15.1970000   15.7800000   23.1910000  
C 14.4890000   16.7980000   23.8900000  
C 16.2820000   19.8210000   22.2130000  
C 17.1780000   19.4270000   21.2390000  
N 17.1310000   18.0280000   21.0860000  
O 17.6660000   21.6440000   20.7070000  
C 18.0510000   20.3500000   20.5450000  
O 18.9910000   19.9440000   19.8770000  
O 15.0670000   14.4650000   23.5960000  
O 13.5840000   16.4200000   24.8600000  
H 16.1560000   20.7820000   22.6550000  
H 16.7020000   21.5960000   20.9530000  
H 17.5750000   17.4410000   20.3390000  
H 15.6000000   13.8740000   23.0430000  
H 13.7490000   15.5380000   25.1560000  
C 17.1190000   15.2580000   21.6850000  
C 18.5040000   15.5070000   21.9180000  
C 19.4600000   14.8660000   21.1490000  
C 19.1500000   13.9610000   20.1060000  
C 17.7880000   13.4690000   20.1100000  
C 16.7860000   14.1900000   20.8170000  
C 19.2180000   16.5040000   22.6740000  
C 20.5880000   16.4270000   22.3450000  
N 20.6990000   15.4530000   21.3660000  
O 21.5340000   17.9610000   23.8610000  
C 21.7940000   17.1060000   22.8530000  
O 22.9740000   16.9140000   22.5230000  
O 17.3920000   12.4690000   19.2380000  
O 15.4500000   13.8040000   20.6450000  
H 18.7620000   17.2100000   23.3570000  
H 20.5770000   18.1200000   23.8330000  
H 21.5540000   15.2670000   20.8830000  
H 18.1710000   12.0350000   18.8490000  
H 15.4250000   13.2260000   19.8760000  
C 20.3040000   13.4620000   19.2280000  
C 21.4520000   12.8410000   19.7030000  
C 22.3820000   12.3900000   18.8350000  
C 22.3610000   12.7610000   17.5200000  
C 21.3060000   13.5030000   16.9860000  
C 20.2330000   13.7890000   17.8620000  
C 21.7950000   12.3450000   20.9500000  
C 22.9170000   11.5300000   20.8340000  
N 23.2930000   11.5840000   19.4430000  
O 23.0050000   11.0080000   23.1780000  
C 23.5730000   10.7850000   21.9560000  
O 24.6230000   10.2480000   21.8480000  
O 21.3570000   14.0100000   15.6910000  
O 19.1360000   14.5050000   17.4110000  
H 21.1500000   12.3530000   21.8010000  
H 22.1940000   11.5060000   22.9440000  
H 23.9840000   11.0090000   19.0080000  
H 20.5070000   14.3910000   15.5810000  
H 18.5390000   14.6980000   18.1600000  
H 23.1330000   12.4630000   16.9210000  
