78
110 
C 20.8280000   13.0730000   27.6990000  
C 20.8030000   11.7460000   27.3920000  
C 20.4590000   11.4190000   26.0350000  
C 19.9390000   12.3450000   25.1970000  
C 19.8760000   13.7220000   25.5160000  
C 20.3200000   14.0680000   26.8000000  
C 20.1860000   10.1120000   25.5210000  
C 19.6500000   10.3170000   24.2300000  
N 19.4200000   11.7080000   24.0580000  
O 19.5320000    7.9810000   23.6180000  
C 19.2440000    9.2960000   23.2180000  
O 18.6760000    9.5550000   22.1450000  
O 20.2850000   15.4250000   27.1000000  
O 21.2850000   13.4740000   28.9530000  
H 21.1070000   11.0190000   28.0520000  
H 20.3710000    9.1670000   26.0770000  
H 20.1490000    8.0960000   24.3080000  
H 18.8140000   12.0540000   23.3290000  
H 20.1340000   15.9720000   26.3050000  
H 21.3660000   14.4450000   28.8050000  
C 19.2680000   14.7290000   24.6270000  
C 17.8720000   14.7230000   24.5170000  
C 17.1930000   15.4030000   23.5220000  
C 17.8270000   16.1280000   22.5120000  
C 19.2490000   16.2780000   22.7920000  
C 19.9590000   15.6100000   23.7530000  
C 16.9040000   13.9930000   25.1830000  
C 15.6950000   14.1220000   24.5170000  
N 15.9500000   14.9170000   23.3450000  
O 14.3200000   12.7040000   25.8750000  
C 14.3610000   13.6000000   24.8690000  
O 13.3200000   13.9660000   24.3170000  
O 19.9750000   17.1760000   22.0530000  
O 21.3180000   15.6120000   23.8520000  
H 17.1070000   13.5700000   26.1720000  
H 15.2180000   12.5190000   26.1680000  
H 15.2700000   15.2500000   22.7190000  
H 19.4700000   17.6210000   21.3200000  
H 21.6910000   16.2200000   23.0830000  
C 17.0150000   16.8370000   21.4590000  
C 16.8430000   18.2490000   21.5230000  
C 16.1530000   18.8910000   20.5110000  
C 15.6610000   18.3060000   19.3370000  
C 15.8720000   16.9100000   19.2610000  
C 16.4720000   16.1750000   20.3180000  
C 17.2980000   19.1870000   22.4860000  
C 16.8930000   20.4480000   21.9110000  
N 16.1220000   20.2390000   20.7910000  
O 17.5060000   21.7370000   23.7750000  
C 17.0890000   21.7980000   22.5200000  
O 16.8060000   22.8340000   21.9630000  
O 15.5300000   16.1770000   18.1480000  
O 16.7420000   14.8510000   20.1860000  
H 17.8190000   18.9680000   23.4380000  
H 17.4510000   20.7400000   23.8550000  
H 15.5650000   20.9030000   20.2690000  
H 14.8070000   16.6080000   17.6710000  
H 16.4380000   14.6570000   19.2690000  
C 15.0850000   19.1360000   18.2300000  
C 15.8690000   20.1390000   17.6040000  
C 15.4070000   20.8910000   16.5110000  
C 14.1070000   20.8200000   16.0210000  
C 13.2940000   19.8040000   16.5950000  
C 13.7790000   18.9510000   17.6460000  
C 17.2560000   20.4180000   17.7070000  
C 17.5790000   21.3470000   16.7840000  
N 16.4560000   21.6600000   16.0620000  
O 19.7610000   21.6210000   17.4620000  
C 18.8000000   22.0800000   16.6290000  
O 19.0290000   22.9770000   15.8520000  
O 12.0040000   19.8020000   16.2630000  
O 12.9910000   17.8870000   18.0850000  
H 17.9010000   20.1920000   18.5380000  
H 19.2680000   20.9610000   17.9870000  
H 16.4580000   22.3810000   15.3470000  
H 11.5540000   19.1760000   16.8510000  
H 13.1600000   17.7830000   19.0980000  
H 13.6910000   21.5660000   15.2840000  
