78
110 
C 15.8570000   17.0860000   29.1950000  
C 16.3620000   18.3320000   29.5660000  
C 17.1780000   19.0270000   28.6680000  
C 17.4690000   18.6180000   27.4150000  
C 16.9190000   17.4980000   26.8690000  
C 16.0920000   16.7120000   27.7970000  
C 17.7690000   20.2930000   28.8370000  
C 18.3370000   20.6650000   27.5670000  
N 18.2140000   19.5420000   26.7940000  
O 19.5130000   22.3640000   28.4390000  
C 19.1300000   21.8500000   27.3310000  
O 19.6100000   22.1870000   26.2770000  
O 15.5540000   15.5200000   27.4150000  
O 15.1040000   16.3630000   30.0640000  
H 16.1930000   18.7410000   30.5430000  
H 17.6640000   20.9770000   29.6490000  
H 18.7990000   22.0630000   29.0630000  
H 18.6430000   19.3830000   25.8530000  
H 15.9530000   15.3590000   26.5780000  
H 14.9410000   15.5280000   29.6280000  
C 17.0540000   17.0700000   25.4270000  
C 17.7500000   15.8990000   25.0650000  
C 17.9720000   15.5750000   23.7560000  
C 17.5970000   16.3910000   22.6800000  
C 16.9680000   17.5490000   23.0640000  
C 16.7400000   17.9410000   24.3880000  
C 18.3020000   14.8040000   25.8440000  
C 18.8510000   13.8530000   24.8980000  
N 18.6870000   14.3650000   23.6100000  
O 19.6560000   12.4950000   26.6410000  
C 19.5720000   12.6790000   25.2780000  
O 19.8810000   11.8390000   24.4900000  
O 16.4580000   18.3370000   22.0610000  
O 16.2390000   19.2180000   24.5750000  
H 18.2960000   14.6910000   26.9430000  
H 19.0630000   13.1210000   27.0330000  
H 18.9820000   13.9270000   22.7550000  
H 16.6170000   17.8550000   21.2160000  
H 15.8940000   19.6910000   23.7640000  
C 17.8250000   16.0920000   21.2200000  
C 17.0330000   15.0950000   20.5150000  
C 17.2010000   14.9250000   19.1550000  
C 18.0030000   15.7510000   18.3070000  
C 18.6950000   16.7490000   18.9470000  
C 18.6120000   16.9080000   20.3950000  
C 16.1050000   14.1020000   20.9700000  
C 15.8160000   13.2840000   19.9190000  
N 16.4340000   13.8100000   18.8010000  
O 14.4190000   11.8280000   21.3760000  
C 14.8050000   12.1550000   20.0950000  
O 14.3640000   11.5710000   19.1240000  
O 19.4330000   17.6430000   18.1980000  
O 19.4290000   17.9330000   20.8420000  
H 15.7720000   13.9860000   22.0340000  
H 15.0520000   12.1010000   22.0020000  
H 16.4940000   13.3640000   17.9290000  
H 19.3190000   17.3360000   17.2600000  
H 19.8090000   18.4390000   20.0780000  
C 18.1050000   15.6100000   16.8790000  
C 17.5250000   16.5430000   15.9450000  
C 17.5000000   16.2980000   14.5890000  
C 18.0910000   15.1570000   14.0100000  
C 18.6370000   14.2130000   14.8820000  
C 18.7320000   14.4600000   16.2880000  
C 16.8360000   17.8040000   16.1590000  
C 16.4390000   18.2370000   14.9230000  
N 16.9100000   17.3790000   13.9740000  
O 15.4210000   20.1110000   15.7980000  
C 15.6160000   19.4090000   14.6490000  
O 15.2830000   19.7060000   13.5320000  
O 19.3170000   13.2000000   14.2330000  
O 19.3930000   13.5570000   17.0810000  
H 16.7580000   18.4070000   17.0370000  
H 16.0220000   19.6740000   16.3760000  
H 16.6490000   17.3940000   12.9850000  
H 19.6950000   12.6500000   15.0020000  
H 19.4150000   13.8600000   17.9500000  
H 18.0480000   15.0130000   12.9580000  
