78
110 
C 20.7760000   12.8040000   27.1820000  
C 20.8510000   11.4050000   26.9900000  
C 20.2150000   10.8750000   25.8660000  
C 19.6380000   11.7020000   24.9520000  
C 19.5830000   13.0960000   25.0680000  
C 20.0530000   13.6470000   26.3240000  
C 20.2610000    9.5620000   25.3150000  
C 19.7410000    9.6450000   24.0230000  
N 19.1190000   10.9220000   23.9310000  
O 19.9920000    7.3380000   23.2830000  
C 19.5520000    8.5930000   23.0330000  
O 18.9840000    8.8770000   21.9800000  
O 20.0970000   15.0120000   26.6370000  
O 21.2720000   13.4010000   28.3330000  
H 21.3080000   10.7330000   27.7040000  
H 20.6850000    8.6880000   25.7500000  
H 20.3880000    7.2950000   24.1940000  
H 18.7010000   11.2970000   23.0850000  
H 19.8910000   15.5740000   25.8460000  
H 21.2390000   14.3780000   28.1790000  
C 19.0320000   14.0240000   24.0390000  
C 17.6680000   13.9900000   23.7900000  
C 17.1170000   14.8390000   22.8380000  
C 17.8530000   15.8550000   22.1360000  
C 19.2870000   15.8910000   22.4430000  
C 19.8540000   14.9540000   23.3640000  
C 16.5580000   13.3000000   24.3900000  
C 15.3790000   13.7350000   23.8170000  
N 15.7530000   14.5480000   22.7630000  
O 13.8720000   12.2500000   25.0090000  
C 13.9870000   13.2750000   24.1260000  
O 12.9850000   13.7740000   23.6580000  
O 20.1820000   16.8160000   21.8160000  
O 21.1900000   14.8890000   23.5000000  
H 16.6390000   12.6180000   25.2580000  
H 14.7350000   11.9120000   25.2990000  
H 15.1830000   14.8770000   22.0030000  
H 19.7120000   17.3320000   21.0730000  
H 21.6400000   15.4040000   22.9280000  
C 17.1680000   16.8910000   21.3330000  
C 17.3150000   18.2810000   21.6120000  
C 16.5080000   19.2310000   21.0320000  
C 15.8010000   19.0200000   19.8740000  
C 15.6790000   17.6060000   19.4930000  
C 16.3230000   16.5490000   20.2370000  
C 18.0470000   19.0130000   22.6700000  
C 17.7700000   20.3550000   22.4790000  
N 16.8380000   20.4980000   21.4650000  
O 19.3350000   21.2380000   24.0340000  
C 18.3830000   21.5120000   23.1240000  
O 17.9790000   22.6320000   22.8650000  
O 14.9250000   17.2410000   18.4580000  
O 16.1380000   15.2590000   19.8880000  
H 18.7820000   18.5420000   23.3890000  
H 19.6370000   20.2900000   23.9050000  
H 16.5550000   21.3350000   20.9410000  
H 14.2190000   17.8760000   18.4750000  
H 15.7460000   15.3340000   18.9960000  
C 15.1320000   20.1320000   19.0800000  
C 15.7690000   20.8720000   18.0460000  
C 15.1210000   21.8670000   17.3590000  
C 13.8990000   22.3900000   17.8810000  
C 13.2460000   21.6570000   18.8340000  
C 13.8310000   20.5200000   19.4550000  
C 16.9690000   20.5370000   17.2970000  
C 17.0710000   21.5690000   16.2920000  
N 15.9200000   22.3450000   16.3450000  
O 19.1470000   20.7530000   15.3610000  
C 18.2410000   21.7550000   15.3840000  
O 18.4210000   22.7300000   14.7030000  
O 11.9590000   21.9380000   19.2380000  
O 13.1090000   19.8650000   20.4310000  
H 17.7480000   19.8500000   17.6340000  
H 18.8260000   20.1320000   16.1050000  
H 15.6280000   23.0980000   15.7700000  
H 11.7290000   21.2800000   19.9000000  
H 13.7550000   19.3910000   21.0710000  
H 13.5330000   23.3330000   17.5260000  
