78
110 
C 15.3070000   11.1970000   17.2250000  
C 14.4710000   11.6170000   16.1570000  
C 14.0410000   12.9800000   16.2350000  
C 14.2770000   13.7940000   17.3700000  
C 15.1510000   13.3760000   18.4370000  
C 15.6190000   12.0210000   18.3430000  
C 13.4360000   13.8010000   15.3080000  
C 13.3680000   15.0690000   15.8740000  
N 13.8470000   15.0610000   17.1530000  
O 12.1130000   16.1470000   14.1660000  
C 12.8350000   16.2870000   15.2900000  
O 12.8800000   17.4170000   15.7380000  
O 16.5180000   11.5940000   19.2660000  
O 15.8790000    9.9590000   17.1040000  
H 14.4330000   11.0320000   15.2240000  
H 12.8700000   13.5640000   14.4000000  
H 11.8970000   15.1960000   14.0870000  
H 13.9590000   15.9020000   17.7690000  
H 16.9310000   12.3120000   19.7580000  
H 16.3360000    9.8230000   17.9290000  
C 15.8120000   14.2240000   19.4580000  
C 15.5550000   14.0420000   20.8450000  
C 16.2430000   14.7950000   21.7400000  
C 17.0730000   15.8650000   21.4210000  
C 17.3290000   16.1140000   20.0660000  
C 16.6470000   15.3070000   19.0960000  
C 14.7940000   13.0840000   21.6220000  
C 15.0980000   13.3940000   22.9860000  
N 15.9790000   14.4410000   23.0300000  
O 13.5140000   11.8450000   23.8930000  
C 14.3600000   12.8160000   24.2270000  
O 14.6300000   13.1200000   25.3950000  
O 18.2020000   17.1120000   19.7090000  
O 17.0050000   15.5380000   17.8120000  
H 14.1080000   12.2850000   21.3140000  
H 13.8150000   11.5520000   23.0180000  
H 16.3390000   14.9140000   23.9080000  
H 18.3650000   17.6650000   20.5260000  
H 17.7230000   16.1970000   17.7980000  
C 17.8110000   16.5490000   22.5060000  
C 19.2520000   16.6080000   22.5100000  
C 19.8910000   17.3500000   23.5020000  
C 19.2190000   18.1380000   24.5060000  
C 17.8460000   17.9830000   24.5220000  
C 17.1630000   17.2730000   23.5450000  
C 20.2610000   15.9880000   21.7460000  
C 21.4920000   16.5530000   22.1380000  
N 21.2790000   17.3670000   23.2490000  
O 22.7530000   15.7800000   20.1630000  
C 22.8010000   16.4560000   21.3280000  
O 23.8700000   16.9010000   21.7250000  
O 17.0930000   18.5610000   25.4900000  
O 15.7710000   17.2630000   23.5630000  
H 20.1290000   15.3000000   20.9450000  
H 21.8690000   15.3980000   20.1090000  
H 21.9970000   17.6880000   23.9020000  
H 17.6820000   18.9590000   26.1810000  
H 15.4560000   17.5250000   24.4620000  
C 19.8900000   18.9600000   25.5720000  
C 19.6020000   20.3160000   25.8480000  
C 20.1550000   21.0100000   26.9300000  
C 21.0090000   20.4790000   27.9020000  
C 21.2480000   19.0600000   27.7620000  
C 20.7490000   18.3360000   26.5860000  
C 18.8930000   21.3000000   25.1150000  
C 19.1390000   22.5670000   25.6920000  
N 19.8460000   22.3300000   26.8240000  
O 17.7130000   23.7630000   24.1320000  
C 18.3840000   23.8090000   25.3110000  
O 18.4070000   24.7990000   26.0450000  
O 22.0240000   18.4150000   28.6470000  
O 21.0700000   17.0400000   26.4760000  
H 18.3400000   21.0550000   24.2250000  
H 17.7460000   22.9160000   23.6440000  
H 20.0370000   23.0940000   27.4590000  
H 21.7920000   17.4780000   28.5630000  
H 20.4170000   16.6100000   25.9180000  
H 21.3370000   21.0250000   28.8040000  
