78
110 
C 11.5880000   19.4060000   17.8420000  
C 10.6560000   18.3650000   17.7050000  
C 11.0600000   17.0780000   18.0330000  
C 12.2490000   16.9080000   18.7030000  
C 13.2670000   17.8980000   18.9210000  
C 12.8920000   19.1410000   18.3990000  
C 10.2530000   15.8900000   18.1250000  
C 11.0120000   14.9880000   18.9600000  
N 12.2550000   15.6030000   19.2410000  
O  9.3040000   13.3500000   18.9310000  
C 10.3740000   13.7740000   19.5560000  
O 10.8230000   13.0370000   20.4120000  
O 13.7500000   20.1760000   18.5460000  
O 11.2770000   20.6200000   17.4260000  
H  9.7000000   18.4840000   17.2080000  
H  9.2150000   15.8290000   18.1180000  
H  9.1580000   13.8090000   18.1420000  
H 12.8270000   15.3830000   20.0380000  
H 14.4310000   19.8570000   19.1640000  
H 12.1320000   21.0420000   17.3070000  
C 14.4840000   17.6600000   19.7950000  
C 15.3690000   16.5770000   19.4970000  
C 16.3570000   16.1680000   20.4250000  
C 16.7410000   16.8810000   21.6120000  
C 15.9450000   18.0480000   21.8910000  
C 14.8500000   18.3680000   21.0180000  
C 15.3980000   15.5450000   18.4620000  
C 16.4800000   14.6930000   18.7680000  
N 16.9890000   15.0430000   20.0430000  
O 15.9270000   13.2930000   16.9230000  
C 16.7920000   13.5080000   17.9470000  
O 17.6580000   12.7400000   18.2490000  
O 16.3580000   18.8800000   22.9180000  
O 14.0500000   19.4200000   21.3240000  
H 14.9710000   15.6110000   17.4870000  
H 15.2240000   13.9510000   17.0020000  
H 17.7120000   14.4640000   20.4710000  
H 16.9060000   18.4980000   23.6320000  
H 14.3640000   19.8670000   22.1460000  
C 17.7900000   16.3370000   22.5670000  
C 19.1370000   16.2490000   22.1890000  
C 20.0670000   16.0280000   23.1590000  
C 19.8970000   15.8620000   24.5510000  
C 18.5140000   15.9700000   24.9400000  
C 17.4860000   16.2710000   23.9630000  
C 19.7530000   16.4120000   20.9100000  
C 21.1050000   16.2120000   21.1650000  
N 21.3090000   15.9540000   22.5690000  
O 21.7640000   16.3170000   18.8930000  
C 22.2050000   16.3500000   20.1760000  
O 23.3950000   16.2940000   20.4650000  
O 18.1770000   16.0320000   26.2990000  
O 16.1600000   16.4120000   24.3910000  
H 19.3710000   16.8550000   19.9450000  
H 20.7800000   16.4050000   18.8930000  
H 22.1690000   15.7950000   23.1100000  
H 18.9040000   16.1610000   26.9680000  
H 15.9810000   15.7220000   25.0500000  
C 20.9560000   15.6940000   25.5780000  
C 22.0340000   16.6080000   25.7780000  
C 22.9910000   16.4050000   26.7090000  
C 22.9410000   15.3760000   27.6120000  
C 21.9820000   14.3730000   27.3440000  
C 20.9950000   14.5220000   26.4110000  
C 22.2150000   17.9290000   25.1960000  
C 23.3240000   18.4440000   25.8350000  
N 23.7220000   17.5200000   26.7920000  
O 23.3470000   20.5550000   24.7960000  
C 24.0570000   19.7400000   25.5670000  
O 25.1990000   19.9290000   25.9350000  
O 21.9620000   13.3010000   28.2140000  
O 20.0550000   13.4650000   26.3520000  
H 21.8380000   18.3290000   24.3040000  
H 22.4310000   20.1680000   24.8980000  
H 24.4930000   17.5550000   27.4090000  
H 21.1540000   12.8090000   28.1450000  
H 19.4570000   13.7020000   25.6100000  
H 23.6940000   15.2580000   28.3690000  
