78
110 
C 11.5320000   20.2870000   19.1280000  
C 10.3920000   19.4420000   19.1510000  
C 10.5550000   18.2050000   19.8560000  
C 11.8070000   17.8200000   20.2970000  
C 13.0340000   18.5700000   20.2280000  
C 12.7910000   19.8470000   19.5900000  
C  9.6620000   17.0420000   19.8320000  
C 10.3090000   16.1130000   20.6410000  
N 11.6600000   16.5860000   20.8460000  
O  8.4250000   14.8840000   21.3670000  
C  9.7560000   15.0170000   21.4600000  
O 10.4470000   14.2890000   22.1640000  
O 13.7740000   20.7660000   19.5820000  
O 11.4410000   21.5800000   18.6090000  
H  9.4620000   19.7890000   18.7770000  
H  8.6610000   17.2060000   19.5360000  
H  8.2660000   15.4000000   20.6230000  
H 12.3630000   16.0440000   21.3460000  
H 14.4360000   20.4770000   20.2330000  
H 12.3330000   21.9330000   18.5300000  
C 14.3670000   18.1060000   20.6700000  
C 15.1060000   17.3010000   19.8060000  
C 16.2860000   16.7850000   20.2240000  
C 16.9270000   16.9870000   21.5130000  
C 16.2510000   18.0000000   22.2820000  
C 14.9650000   18.6240000   21.8510000  
C 14.9060000   16.7560000   18.4120000  
C 16.0450000   16.0460000   18.0850000  
N 16.8630000   16.0340000   19.2410000  
O 15.4300000   15.5110000   15.8530000  
C 16.3630000   15.3630000   16.8240000  
O 17.4080000   14.7260000   16.6820000  
O 16.7640000   18.3990000   23.4400000  
O 14.3280000   19.4950000   22.7270000  
H 14.0650000   16.8080000   17.6850000  
H 14.6010000   15.7970000   16.2720000  
H 17.8270000   15.6060000   19.3110000  
H 17.3680000   17.6870000   23.7220000  
H 14.9470000   19.8020000   23.4080000  
C 18.1030000   16.2350000   22.0400000  
C 19.4010000   16.6120000   21.7260000  
C 20.4360000   15.9290000   22.3170000  
C 20.3030000   14.8370000   23.1970000  
C 18.9810000   14.4070000   23.4420000  
C 17.8980000   15.0650000   22.8130000  
C 20.0300000   17.6730000   20.9690000  
C 21.3850000   17.4870000   21.1150000  
N 21.6590000   16.3730000   21.9330000  
O 21.9370000   19.4830000   19.9930000  
C 22.3990000   18.5020000   20.7450000  
O 23.6010000   18.3310000   21.0270000  
O 18.7380000   13.2880000   24.1650000  
O 16.6420000   14.6810000   23.0430000  
H 19.5450000   18.4490000   20.4300000  
H 21.0060000   19.3210000   19.8850000  
H 22.5290000   16.2200000   22.4130000  
H 19.6330000   12.8590000   24.4780000  
H 16.6420000   14.0490000   23.8010000  
C 21.4980000   14.2160000   23.8340000  
C 22.1920000   14.8740000   24.8760000  
C 23.1990000   14.3070000   25.5830000  
C 23.6490000   12.9900000   25.3410000  
C 22.9290000   12.2170000   24.3710000  
C 21.8890000   12.8590000   23.6020000  
C 22.0110000   16.2110000   25.3730000  
C 22.8830000   16.3610000   26.3980000  
N 23.6930000   15.2630000   26.4220000  
O 22.0990000   18.4440000   27.1720000  
C 23.0470000   17.5540000   27.2420000  
O 23.9600000   17.7050000   28.0580000  
O 23.2720000   10.8680000   24.2190000  
O 21.1200000   12.1580000   22.6860000  
H 21.3490000   16.9390000   25.0030000  
H 21.4520000   18.0670000   26.5220000  
H 24.4860000   15.1520000   27.0530000  
H 22.6400000   10.5410000   23.5750000  
H 20.7880000   12.8010000   22.0140000  
H 24.4240000   12.4730000   25.9680000  
