78
110 
C 14.9960000   18.3820000   28.7800000  
C 13.8770000   19.2440000   28.5950000  
C 13.4760000   19.5550000   27.2950000  
C 14.1510000   19.0090000   26.2330000  
C 15.3030000   18.2200000   26.3080000  
C 15.7260000   17.9310000   27.6440000  
C 12.2250000   20.1180000   26.8440000  
C 12.3510000   20.1390000   25.4680000  
N 13.5050000   19.4140000   25.0710000  
O 10.1740000   21.2930000   25.1840000  
C 11.3240000   20.7790000   24.5650000  
O 11.4060000   20.8070000   23.3310000  
O 16.8330000   17.1300000   27.8390000  
O 15.3670000   17.8560000   30.0670000  
H 13.3140000   19.5940000   29.4140000  
H 11.4720000   20.7310000   27.3700000  
H 10.3800000   21.1510000   26.0980000  
H 13.9140000   19.2890000   24.1410000  
H 17.2230000   16.8050000   26.9840000  
H 15.8660000   17.0660000   29.8710000  
C 15.9990000   17.6150000   25.0850000  
C 16.8490000   18.4010000   24.2960000  
C 17.5780000   17.8160000   23.2950000  
C 17.5200000   16.4800000   22.9050000  
C 16.6790000   15.6290000   23.7000000  
C 15.9640000   16.1850000   24.8010000  
C 17.3140000   19.7680000   24.4540000  
C 18.2800000   19.9450000   23.4780000  
N 18.4120000   18.7580000   22.6740000  
O 18.4750000   22.3390000   23.8850000  
C 18.9330000   21.2240000   23.1540000  
O 19.7400000   21.3150000   22.2380000  
O 16.6540000   14.3060000   23.2880000  
O 15.1460000   15.3750000   25.5610000  
H 17.0720000   20.4160000   25.2570000  
H 17.5010000   22.1500000   24.1480000  
H 18.8480000   18.6860000   21.7640000  
H 17.4770000   14.0490000   22.8130000  
H 14.5570000   15.9460000   26.1400000  
C 18.1270000   16.0840000   21.6400000  
C 19.2090000   15.1860000   21.5480000  
C 19.6970000   14.7740000   20.3780000  
C 19.4210000   15.2260000   19.0890000  
C 18.4890000   16.2340000   19.1430000  
C 17.8250000   16.6460000   20.3730000  
C 19.8060000   14.2810000   22.5430000  
C 20.5160000   13.3000000   21.8170000  
N 20.5110000   13.7190000   20.5150000  
O 21.1030000   11.9190000   23.7450000  
C 21.2340000   12.0970000   22.3770000  
O 21.7690000   11.1800000   21.7170000  
O 18.1020000   16.8710000   17.9960000  
O 16.8610000   17.7010000   20.3370000  
H 19.7480000   14.2910000   23.6250000  
H 20.7480000   12.7410000   24.1650000  
H 20.9290000   13.1900000   19.7360000  
H 18.6760000   16.5210000   17.2650000  
H 16.8080000   18.0560000   19.4360000  
C 20.0200000   14.7030000   17.8480000  
C 19.2220000   14.1910000   16.8310000  
C 19.7150000   13.6670000   15.6560000  
C 21.0370000   13.6160000   15.3790000  
C 21.9100000   14.1230000   16.3110000  
C 21.4020000   14.6430000   17.5700000  
C 17.7550000   14.1140000   16.7440000  
C 17.4910000   13.4650000   15.5160000  
N 18.6980000   13.2120000   14.8740000  
O 15.0740000   13.0760000   15.8060000  
C 16.1780000   13.0690000   14.9780000  
O 16.0670000   12.5510000   13.9000000  
O 23.2120000   14.2320000   15.8420000  
O 22.3380000   14.9150000   18.4800000  
H 17.0210000   14.3820000   17.4570000  
H 15.3770000   13.4780000   16.6010000  
H 18.7600000   12.8280000   13.9770000  
H 23.5770000   14.9740000   16.3000000  
H 21.8620000   15.3800000   19.2360000  
H 21.4440000   13.1890000   14.4590000  
