78
110 
C 13.7820000   15.4060000   15.4270000  
C 12.7560000   14.4330000   15.5820000  
C 12.5580000   13.9880000   16.8610000  
C 13.3430000   14.3400000   17.9370000  
C 14.4390000   15.2290000   17.8590000  
C 14.5670000   15.8070000   16.5660000  
C 11.4550000   13.2200000   17.4720000  
C 11.7420000   13.1060000   18.8230000  
N 12.9410000   13.7330000   19.0880000  
O  9.7760000   11.9400000   19.2890000  
C 10.9110000   12.4020000   19.7910000  
O 11.2280000   12.2830000   20.9470000  
O 15.4420000   16.8860000   16.3940000  
O 13.8820000   16.0940000   14.2700000  
H 12.0590000   14.2640000   14.8040000  
H 10.5010000   12.8660000   17.0610000  
H  9.7180000   12.2820000   18.4050000  
H 13.3010000   13.8340000   19.9830000  
H 15.4700000   17.0480000   15.4820000  
H 13.3530000   15.5400000   13.7000000  
C 15.3150000   15.4720000   19.0170000  
C 16.7110000   15.2170000   19.0220000  
C 17.3950000   15.3560000   20.2040000  
C 16.9160000   15.8060000   21.4220000  
C 15.5440000   15.9920000   21.4520000  
C 14.7640000   15.9240000   20.2440000  
C 17.6880000   14.8350000   18.0070000  
C 18.8960000   14.8420000   18.6390000  
N 18.7080000   15.2020000   19.9870000  
O 20.1690000   14.1670000   16.7680000  
C 20.1650000   14.5800000   18.0620000  
O 21.1160000   14.7510000   18.8010000  
O 14.9320000   16.4640000   22.6050000  
O 13.4660000   16.2550000   20.5080000  
H 17.4850000   14.6790000   16.9620000  
H 19.2620000   14.3410000   16.4450000  
H 19.4580000   15.4190000   20.6800000  
H 15.6400000   16.3040000   23.2900000  
H 13.3780000   16.4510000   21.4560000  
C 17.8680000   16.0360000   22.5920000  
C 18.8290000   17.0840000   22.5740000  
C 19.6340000   17.3100000   23.6850000  
C 19.4270000   16.7240000   24.9150000  
C 18.5980000   15.6460000   24.9440000  
C 17.8520000   15.2800000   23.7960000  
C 19.1340000   18.1650000   21.7080000  
C 20.1430000   18.9060000   22.2570000  
N 20.4010000   18.3860000   23.5380000  
O 20.0370000   20.5540000   20.4610000  
C 20.5990000   20.1890000   21.5630000  
O 21.4270000   20.9380000   22.1410000  
O 18.4000000   14.8790000   26.0690000  
O 16.9240000   14.2710000   23.9740000  
H 18.6190000   18.4460000   20.7730000  
H 19.5780000   19.7970000   20.0710000  
H 21.1190000   18.7280000   24.1640000  
H 18.7910000   15.4470000   26.7810000  
H 16.9340000   14.0380000   24.9490000  
C 20.2150000   17.1310000   26.1760000  
C 20.0490000   18.4720000   26.6820000  
C 20.7580000   18.9250000   27.7620000  
C 21.7050000   18.1200000   28.2950000  
C 22.0060000   16.8660000   27.7030000  
C 21.2450000   16.3570000   26.5940000  
C 19.2900000   19.5750000   26.2290000  
C 19.6780000   20.6740000   27.0000000  
N 20.5820000   20.2820000   27.9880000  
O 18.1260000   22.1740000   26.0490000  
C 19.2110000   21.9890000   26.8310000  
O 19.7120000   22.9090000   27.3690000  
O 23.0060000   16.1400000   28.1800000  
O 21.4450000   15.1340000   26.1480000  
H 18.6160000   19.5610000   25.3850000  
H 17.8920000   21.2490000   25.7270000  
H 20.9670000   20.9010000   28.6400000  
H 22.9400000   15.3210000   27.6840000  
H 20.7700000   14.9790000   25.4800000  
H 22.2790000   18.3940000   29.1860000  
