78
110 
C 16.1630000   11.9940000   16.1550000  
C 14.8550000   11.4970000   16.0980000  
C 13.9620000   11.8720000   17.1190000  
C 14.4270000   12.6110000   18.1820000  
C 15.7590000   13.0680000   18.3270000  
C 16.6190000   12.7810000   17.2200000  
C 12.5630000   11.5690000   17.2560000  
C 12.2500000   12.1630000   18.5060000  
N 13.3780000   12.8140000   19.0250000  
O  9.8890000   11.6700000   18.3330000  
C 10.8420000   12.3050000   19.0720000  
O 10.5720000   12.8960000   20.1330000  
O 17.8600000   13.2460000   17.1920000  
O 16.9570000   11.7360000   15.0770000  
H 14.4790000   10.7830000   15.3250000  
H 11.8610000   11.0920000   16.5860000  
H 10.3740000   11.1620000   17.6120000  
H 13.3970000   13.5050000   19.7450000  
H 18.2230000   13.1030000   16.3140000  
H 16.4180000   11.1240000   14.4780000  
C 16.1730000   14.0300000   19.3400000  
C 17.3550000   13.9470000   20.0730000  
C 17.7490000   14.8570000   21.0010000  
C 17.0650000   16.0440000   21.3080000  
C 15.9630000   16.3000000   20.5060000  
C 15.4670000   15.2930000   19.6410000  
C 18.2940000   12.8560000   20.1610000  
C 19.2530000   13.1840000   21.1470000  
N 18.9070000   14.4250000   21.6230000  
O 20.4770000   11.2600000   20.7240000  
C 20.4450000   12.4120000   21.4550000  
O 21.2850000   12.7230000   22.3440000  
O 15.2740000   17.5200000   20.5760000  
O 14.3350000   15.6140000   18.9780000  
H 18.3770000   12.0120000   19.5130000  
H 19.6050000   11.3230000   20.3150000  
H 19.4020000   14.9330000   22.3520000  
H 15.5480000   18.0000000   21.3700000  
H 13.9640000   16.5230000   19.2860000  
C 17.4880000   17.0600000   22.3880000  
C 18.6630000   17.7740000   22.2340000  
C 19.2000000   18.4600000   23.2220000  
C 18.7380000   18.6080000   24.5560000  
C 17.4670000   18.0030000   24.7250000  
C 16.8870000   17.2240000   23.6230000  
C 19.4760000   17.8620000   21.0710000  
C 20.5900000   18.6590000   21.4490000  
N 20.4120000   19.0820000   22.8030000  
O 21.6040000   18.5810000   19.3640000  
C 21.7540000   19.0350000   20.6340000  
O 22.7390000   19.5980000   21.0190000  
O 16.8190000   18.2020000   25.9300000  
O 15.6940000   16.6790000   23.8850000  
H 19.2160000   17.5250000   20.0800000  
H 20.6910000   18.3150000   19.4280000  
H 21.0750000   19.7300000   23.2880000  
H 17.4490000   18.7140000   26.3960000  
H 15.5680000   16.9950000   24.7560000  
C 19.4230000   19.4250000   25.5910000  
C 18.7520000   20.5170000   26.0800000  
C 19.3340000   21.3310000   26.9750000  
C 20.6240000   21.1010000   27.4680000  
C 21.3090000   20.0060000   27.0140000  
C 20.7360000   19.1290000   26.0340000  
C 17.3860000   21.0620000   25.7640000  
C 17.3040000   22.2740000   26.5060000  
N 18.4680000   22.3540000   27.2760000  
O 15.3850000   23.1750000   25.5140000  
C 16.2430000   23.3170000   26.5230000  
O 16.2890000   24.3030000   27.2600000  
O 22.5320000   19.6070000   27.4680000  
O 21.4380000   17.9810000   25.6200000  
H 16.5870000   20.7340000   25.0930000  
H 15.6780000   22.3980000   25.0360000  
H 18.5630000   23.0600000   28.0220000  
H 22.6990000   18.6790000   27.0990000  
H 20.8250000   17.3010000   25.2050000  
H 20.9750000   21.8550000   28.1520000  
