78
110 
C 12.5510000   19.3050000   26.9950000  
C 12.7230000   20.6650000   26.9840000  
C 13.8240000   21.1650000   26.2990000  
C 14.6600000   20.3410000   25.6360000  
C 14.5170000   18.9680000   25.4710000  
C 13.3770000   18.4430000   26.1230000  
C 14.3170000   22.5150000   25.9380000  
C 15.3720000   22.3880000   25.0260000  
N 15.6480000   21.0030000   24.9320000  
O 15.8680000   24.6960000   24.6960000  
C 16.2300000   23.3990000   24.4060000  
O 17.1660000   23.0990000   23.6620000  
O 13.1330000   17.0910000   26.1500000  
O 11.4300000   18.7470000   27.6440000  
H 12.0570000   21.2810000   27.6090000  
H 13.8040000   23.4280000   26.1580000  
H 15.1490000   24.5100000   25.2750000  
H 16.3890000   20.6560000   24.3750000  
H 13.9110000   16.7200000   25.7360000  
H 11.3160000   17.8100000   27.3810000  
C 15.3650000   18.1180000   24.5170000  
C 16.6910000   17.9080000   24.7570000  
C 17.4230000   17.2640000   23.7900000  
C 16.9860000   16.6840000   22.6190000  
C 15.6270000   16.9570000   22.3530000  
C 14.8000000   17.7290000   23.2550000  
C 17.6560000   18.3000000   25.8190000  
C 18.8680000   17.7490000   25.4040000  
N 18.6770000   17.1200000   24.1930000  
O 20.0450000   18.2190000   27.4380000  
C 20.1090000   17.7770000   26.1420000  
O 21.1410000   17.4010000   25.6610000  
O 14.9930000   16.4250000   21.2900000  
O 13.4710000   17.8670000   22.9460000  
H 17.4700000   18.8060000   26.7990000  
H 19.1710000   18.6450000   27.4900000  
H 19.3850000   16.7010000   23.5390000  
H 15.4980000   15.5630000   21.0490000  
H 13.2990000   17.5460000   22.0530000  
C 17.8380000   15.8850000   21.6860000  
C 17.5800000   14.5360000   21.4060000  
C 18.2270000   13.9400000   20.4070000  
C 19.2500000   14.5360000   19.5690000  
C 19.5890000   15.9010000   19.8650000  
C 18.8880000   16.5530000   20.9610000  
C 16.7080000   13.5460000   21.9080000  
C 16.9680000   12.3420000   21.2710000  
N 17.8550000   12.5820000   20.2240000  
O 15.1780000   11.1290000   22.3400000  
C 16.2350000   11.0790000   21.5030000  
O 16.4180000   10.1150000   20.8410000  
O 20.5640000   16.5170000   19.0220000  
O 19.2110000   17.8620000   21.1930000  
H 15.9580000   13.7070000   22.6140000  
H 15.2760000   11.9400000   22.8730000  
H 18.2380000   11.9470000   19.6220000  
H 20.7350000   15.8810000   18.3180000  
H 19.9490000   18.0260000   20.5690000  
C 20.1360000   13.7740000   18.6450000  
C 19.8060000   13.7320000   17.2250000  
C 20.6090000   13.0480000   16.3960000  
C 21.8390000   12.4490000   16.7050000  
C 22.1950000   12.4340000   18.0240000  
C 21.3450000   13.0980000   19.0170000  
C 18.7690000   14.3390000   16.4960000  
C 19.0780000   14.0960000   15.1510000  
N 20.2120000   13.2900000   15.1490000  
O 17.4120000   15.6020000   14.3490000  
C 18.2910000   14.6020000   13.9920000  
O 18.4690000   14.1720000   12.8670000  
O 23.3910000   12.0120000   18.4390000  
O 21.8140000   13.1510000   20.2790000  
H 17.8270000   14.7370000   16.9620000  
H 17.4460000   15.6900000   15.2660000  
H 20.6650000   12.8930000   14.3470000  
H 23.3790000   11.9440000   19.4360000  
H 21.0680000   13.6100000   20.7200000  
H 22.5130000   12.0710000   15.9530000  
