78
110 
C 16.7330000   15.8560000   29.1040000  
C 17.5050000   16.7530000   29.9350000  
C 18.1880000   17.7570000   29.3110000  
C 18.1060000   17.9030000   27.9310000  
C 17.4170000   17.0470000   27.0050000  
C 16.6710000   15.9970000   27.6400000  
C 19.0770000   18.8100000   29.7430000  
C 19.6780000   19.3940000   28.6620000  
N 19.0360000   18.8900000   27.5440000  
O 21.1630000   20.8120000   29.7310000  
C 20.7680000   20.3510000   28.5190000  
O 21.1810000   20.6890000   27.4360000  
O 15.8230000   15.2020000   26.9800000  
O 15.9500000   14.9190000   29.7830000  
H 17.5460000   16.6790000   31.0040000  
H 19.3700000   18.9830000   30.7910000  
H 20.7410000   20.1510000   30.3260000  
H 19.2360000   19.1500000   26.6520000  
H 16.1800000   14.9970000   26.1310000  
H 15.3070000   14.5400000   29.2140000  
C 17.3710000   17.1360000   25.4910000  
C 17.8190000   16.0390000   24.7620000  
C 17.7340000   16.0400000   23.4060000  
C 17.1430000   17.0280000   22.6240000  
C 16.7520000   18.1890000   23.3370000  
C 16.8920000   18.2440000   24.7590000  
C 18.2590000   14.7370000   25.1180000  
C 18.4780000   14.0670000   23.9230000  
N 18.2380000   14.9690000   22.8630000  
O 19.2000000   11.9850000   24.7750000  
C 19.0560000   12.7260000   23.6780000  
O 19.3120000   12.3610000   22.5220000  
O 16.3780000   19.3110000   22.7110000  
O 16.6280000   19.4260000   25.4250000  
H 18.1370000   14.2530000   26.0120000  
H 19.1390000   12.6230000   25.4820000  
H 18.6210000   14.9410000   21.8940000  
H 16.8170000   19.2200000   21.8510000  
H 16.1930000   20.0090000   24.7220000  
C 17.0730000   16.8720000   21.1570000  
C 16.2080000   15.9150000   20.5810000  
C 16.3500000   15.6460000   19.2240000  
C 17.3370000   16.1300000   18.3840000  
C 18.0930000   17.1750000   18.8740000  
C 17.9930000   17.4730000   20.2620000  
C 15.2550000   15.0420000   21.1220000  
C 14.8790000   14.2140000   20.0750000  
N 15.6130000   14.5580000   18.8870000  
O 13.2140000   12.9840000   21.2720000  
C 13.9300000   13.0840000   20.1280000  
O 13.7810000   12.2550000   19.2310000  
O 19.1390000   17.6760000   18.1450000  
O 18.7540000   18.5060000   20.6630000  
H 14.8830000   15.0070000   22.1480000  
H 13.4210000   13.7760000   21.7200000  
H 15.5250000   14.1460000   17.9420000  
H 19.1390000   17.2090000   17.2750000  
H 19.3750000   18.7150000   19.9500000  
C 17.5050000   15.7230000   16.9570000  
C 17.1010000   16.6220000   15.8880000  
C 17.4400000   16.3640000   14.6010000  
C 18.0420000   15.1490000   14.1960000  
C 18.2820000   14.2020000   15.2500000  
C 18.0620000   14.4940000   16.5880000  
C 16.5910000   17.9790000   15.9690000  
C 16.6020000   18.4730000   14.6160000  
N 16.9760000   17.4120000   13.7960000  
O 16.0710000   20.7950000   15.0040000  
C 16.2570000   19.8290000   14.0650000  
O 16.0990000   20.0000000   12.8520000  
O 18.8840000   13.0070000   15.0160000  
O 18.4760000   13.5520000   17.5460000  
H 16.2010000   18.5370000   16.8340000  
H 16.1720000   20.4320000   15.8640000  
H 16.7600000   17.3550000   12.7900000  
H 18.9440000   12.4930000   15.8850000  
H 17.9680000   13.6030000   18.3370000  
H 18.2250000   14.8870000   13.1620000  
