78
110 
C 19.4300000   10.5410000   25.7580000  
C 20.2820000    9.6120000   25.1370000  
C 20.6800000    9.9880000   23.8770000  
C 20.3100000   11.1270000   23.2910000  
C 19.4660000   12.1360000   23.8420000  
C 18.9910000   11.7620000   25.1460000  
C 21.5790000    9.2680000   22.9600000  
C 21.7360000   10.1520000   21.8860000  
N 20.9230000   11.2260000   22.0740000  
O 23.3230000    8.8090000   20.7640000  
C 22.6070000    9.9230000   20.7260000  
O 22.8240000   10.6420000   19.7920000  
O 18.0890000   12.5330000   25.7730000  
O 18.9130000   10.1620000   27.0010000  
H 20.6620000    8.7120000   25.6080000  
H 22.1540000    8.3330000   23.1290000  
H 22.8830000    8.1540000   21.3440000  
H 21.0760000   12.0440000   21.5170000  
H 18.0480000   13.2690000   25.1210000  
H 18.4450000   11.0700000   27.2340000  
C 18.9310000   13.3720000   23.1250000  
C 17.5570000   13.5180000   22.8140000  
C 17.1450000   14.7280000   22.3540000  
C 17.9600000   15.8210000   21.9910000  
C 19.3450000   15.6600000   22.2820000  
C 19.8590000   14.4470000   22.7910000  
C 16.3530000   12.7280000   23.0520000  
C 15.2850000   13.4410000   22.5660000  
N 15.7500000   14.6980000   22.1460000  
O 13.6970000   11.7820000   23.1910000  
C 13.8550000   12.9150000   22.4910000  
O 12.9270000   13.4380000   21.9080000  
O 20.1950000   16.7730000   22.1690000  
O 21.2330000   14.3920000   23.0380000  
H 16.2850000   11.7200000   23.6090000  
H 14.5240000   11.5730000   23.6220000  
H 15.2690000   15.4060000   21.5690000  
H 19.5700000   17.5700000   22.1110000  
H 21.6270000   15.1760000   22.5930000  
C 17.3720000   17.1390000   21.5690000  
C 16.5600000   18.0280000   22.3780000  
C 16.0670000   19.2050000   21.8320000  
C 16.0880000   19.5320000   20.4580000  
C 16.8030000   18.6640000   19.5840000  
C 17.4480000   17.5040000   20.1770000  
C 16.2170000   17.9930000   23.7430000  
C 15.5820000   19.2060000   24.0030000  
N 15.4080000   19.9540000   22.7750000  
O 15.1700000   18.7570000   26.3160000  
C 15.0930000   19.6630000   25.3410000  
O 14.5000000   20.7440000   25.4940000  
O 16.9970000   18.8910000   18.2500000  
O 18.3730000   16.7920000   19.4960000  
H 16.4430000   17.2390000   24.4870000  
H 15.6960000   18.0540000   25.9130000  
H 14.6580000   20.6210000   22.5980000  
H 16.3830000   19.6110000   18.0300000  
H 18.4640000   17.0110000   18.5420000  
C 15.2760000   20.6630000   19.9240000  
C 15.8910000   21.8940000   19.5120000  
C 15.1970000   22.9540000   19.0690000  
C 13.8130000   22.9030000   18.9260000  
C 13.1510000   21.6710000   19.2040000  
C 13.8760000   20.5770000   19.7930000  
C 17.3200000   22.2710000   19.5070000  
C 17.3720000   23.6160000   19.1020000  
N 16.0570000   24.0280000   18.8400000  
O 19.7740000   23.5640000   18.6640000  
C 18.6310000   24.3330000   18.7140000  
O 18.7260000   25.5630000   18.5570000  
O 11.8070000   21.8250000   19.0890000  
O 13.1480000   19.5830000   20.3590000  
H 18.0880000   21.5380000   19.7360000  
H 19.5240000   22.7170000   19.0430000  
H 15.7880000   24.9330000   18.4680000  
H 11.3610000   21.1160000   19.5100000  
H 13.8150000   18.8670000   20.5180000  
H 13.2170000   23.7020000   18.4600000  
