78
110 
C 15.4520000   17.2340000   28.9790000  
C 15.9930000   18.4100000   29.5600000  
C 16.7840000   19.2350000   28.7860000  
C 16.9470000   18.8790000   27.4720000  
C 16.3550000   17.8090000   26.7930000  
C 15.5730000   16.9820000   27.6100000  
C 17.5220000   20.4110000   29.1040000  
C 17.8800000   20.8580000   27.7810000  
N 17.4940000   19.9560000   26.8070000  
O 18.6690000   22.9810000   28.4180000  
C 18.4790000   22.1310000   27.3860000  
O 18.8580000   22.4210000   26.2170000  
O 15.0510000   15.9120000   27.0170000  
O 14.5900000   16.4480000   29.7670000  
H 15.8750000   18.6830000   30.6460000  
H 17.5540000   20.9460000   29.9880000  
H 18.3130000   22.5220000   29.2420000  
H 17.6500000   19.9930000   25.8260000  
H 15.6010000   15.7300000   26.2530000  
H 14.1350000   15.8470000   29.1100000  
C 16.5890000   17.4850000   25.3680000  
C 17.5830000   16.5860000   24.9430000  
C 17.7380000   16.3310000   23.6060000  
C 17.0720000   16.9990000   22.5390000  
C 16.1910000   18.0340000   22.9570000  
C 15.9260000   18.3060000   24.3350000  
C 18.4730000   15.6440000   25.6550000  
C 19.1390000   14.9510000   24.6780000  
N 18.6880000   15.3420000   23.3950000  
O 20.5870000   13.6720000   25.9550000  
C 20.0910000   13.8130000   24.7520000  
O 20.5380000   13.1960000   23.7790000  
O 15.4760000   18.7120000   22.0790000  
O 15.0170000   19.3200000   24.7030000  
H 18.5870000   15.4720000   26.6770000  
H 20.0030000   14.1790000   26.5010000  
H 18.7650000   14.7400000   22.6040000  
H 15.8350000   18.4110000   21.2270000  
H 14.4210000   19.4470000   23.9650000  
C 17.3060000   16.6460000   21.1390000  
C 17.0620000   15.3410000   20.7160000  
C 17.3950000   14.9550000   19.4460000  
C 18.0730000   15.7790000   18.5460000  
C 18.3990000   17.0750000   18.9220000  
C 17.9170000   17.5150000   20.1910000  
C 16.5360000   14.1590000   21.3380000  
C 16.4710000   13.1030000   20.3700000  
N 17.0720000   13.6140000   19.2170000  
O 15.2130000   11.4820000   21.6220000  
C 15.8100000   11.7780000   20.4530000  
O 15.7670000   11.0210000   19.4960000  
O 19.2440000   17.8390000   18.1940000  
O 18.3650000   18.7570000   20.5730000  
H 15.9780000   14.1050000   22.2790000  
H 15.3150000   12.2740000   22.0890000  
H 17.2220000   13.1620000   18.3570000  
H 19.5020000   17.3030000   17.4410000  
H 19.0070000   19.0540000   19.8940000  
C 18.5430000   15.1890000   17.2340000  
C 18.0840000   15.7580000   15.9960000  
C 18.3690000   15.2180000   14.7900000  
C 19.1540000   13.9950000   14.7320000  
C 19.6430000   13.4750000   15.9360000  
C 19.3990000   14.0690000   17.1860000  
C 17.1680000   16.8700000   15.7290000  
C 16.8730000   16.8210000   14.3280000  
N 17.7240000   15.9100000   13.7440000  
O 14.9290000   18.1680000   14.4970000  
C 15.7900000   17.6360000   13.6750000  
O 15.4940000   17.5560000   12.4890000  
O 20.6710000   12.5620000   15.7780000  
O 19.8290000   13.5030000   18.3270000  
H 16.6810000   17.4310000   16.4920000  
H 15.2110000   17.8450000   15.3600000  
H 17.5590000   15.6060000   12.7380000  
H 20.8860000   12.1850000   16.6540000  
H 19.2650000   14.0190000   18.9970000  
H 19.4310000   13.5050000   13.7940000  
