78
110 
C 19.6660000   14.9740000   28.9170000  
C 20.0620000   13.6600000   29.0280000  
C 20.1020000   12.8490000   27.8830000  
C 19.6980000   13.3690000   26.6960000  
C 19.3060000   14.7490000   26.4880000  
C 19.3160000   15.5310000   27.6780000  
C 20.3990000   11.4730000   27.6460000  
C 20.1910000   11.2970000   26.2540000  
N 19.8100000   12.5010000   25.6390000  
O 20.8470000    9.0640000   26.3610000  
C 20.4700000   10.0540000   25.5650000  
O 20.3080000    9.8540000   24.3760000  
O 18.8300000   16.8170000   27.7320000  
O 19.4290000   15.6590000   30.0220000  
H 20.2950000   13.1680000   29.9680000  
H 20.6290000   10.7280000   28.3700000  
H 20.7780000    9.3390000   27.2910000  
H 19.6550000   12.8330000   24.6590000  
H 18.6940000   17.2670000   26.8760000  
H 18.9900000   16.4330000   29.6660000  
C 18.8950000   15.2980000   25.1300000  
C 17.8610000   14.6190000   24.4140000  
C 17.2930000   15.1460000   23.3180000  
C 17.7820000   16.2470000   22.5670000  
C 18.8450000   16.8840000   23.2230000  
C 19.3220000   16.5040000   24.5060000  
C 16.9770000   13.5510000   24.7940000  
C 15.9440000   13.5130000   23.9050000  
N 16.1680000   14.4590000   22.8760000  
O 14.8030000   11.5520000   24.8160000  
C 14.8780000   12.4700000   23.8250000  
O 14.0870000   12.4040000   22.8760000  
O 19.5490000   17.8070000   22.6150000  
O 20.1550000   17.3590000   25.1840000  
H 17.0440000   12.8580000   25.6830000  
H 15.5780000   11.7060000   25.3890000  
H 15.5740000   14.6500000   22.1860000  
H 19.2550000   17.9390000   21.7630000  
H 20.6220000   17.9170000   24.6650000  
C 17.2860000   16.7590000   21.2160000  
C 16.7910000   18.0780000   21.0570000  
C 16.3780000   18.5310000   19.8260000  
C 16.3650000   17.7620000   18.6640000  
C 16.9150000   16.4200000   18.7850000  
C 17.2760000   15.9230000   20.0590000  
C 16.3110000   19.0640000   21.9710000  
C 15.7310000   20.0740000   21.2250000  
N 15.6980000   19.7060000   19.8920000  
O 15.7450000   21.6910000   22.9860000  
C 15.3800000   21.3930000   21.7340000  
O 14.7190000   22.2210000   21.1020000  
O 17.0280000   15.6740000   17.6330000  
O 17.7120000   14.6010000   20.1650000  
H 16.2960000   19.0070000   23.0270000  
H 16.0590000   20.8030000   23.2650000  
H 15.4530000   20.3060000   19.1190000  
H 17.2390000   16.2070000   16.8410000  
H 17.4750000   14.1000000   19.3660000  
C 15.8500000   18.2250000   17.2630000  
C 16.3780000   19.3070000   16.5950000  
C 15.9310000   19.7250000   15.3670000  
C 14.8770000   19.0790000   14.7320000  
C 14.2310000   18.0350000   15.4100000  
C 14.7050000   17.6390000   16.7210000  
C 17.4040000   20.2070000   16.9920000  
C 17.5120000   21.1370000   15.9070000  
N 16.5930000   20.8680000   14.9660000  
O 19.1800000   22.2420000   17.0870000  
C 18.5460000   22.2090000   15.9150000  
O 18.7630000   22.9490000   14.9670000  
O 13.0890000   17.4800000   14.8330000  
O 13.9970000   16.6500000   17.3230000  
H 18.0100000   20.1870000   17.9100000  
H 18.7200000   21.7110000   17.7220000  
H 16.4550000   21.3820000   14.1830000  
H 12.7900000   16.8860000   15.5300000  
H 14.3660000   16.7400000   18.2340000  
H 14.5120000   19.4440000   13.8300000  
