78
110 
C 11.4600000   20.8330000   20.5510000  
C 10.4680000   19.8440000   20.1900000  
C 10.8330000   18.5430000   20.0110000  
C 12.1210000   18.2030000   20.1860000  
C 13.1590000   19.0470000   20.6510000  
C 12.8320000   20.4570000   20.7070000  
C 10.1220000   17.2980000   19.6570000  
C 11.0750000   16.2800000   19.6530000  
N 12.2630000   16.8310000   20.0730000  
O  9.6950000   14.6430000   18.8590000  
C 10.9350000   14.9490000   19.1490000  
O 11.8970000   14.2300000   18.9580000  
O 13.8070000   21.3530000   21.0590000  
O 10.9940000   22.1160000   20.7340000  
H  9.4310000   20.1910000   20.0890000  
H  9.0810000   17.1160000   19.3300000  
H  9.1520000   15.4320000   19.1350000  
H 13.0990000   16.3420000   20.2220000  
H 14.6200000   20.8130000   20.9320000  
H 11.7660000   22.5650000   21.2470000  
C 14.4590000   18.4000000   20.9980000  
C 15.5030000   18.2650000   20.1050000  
C 16.6020000   17.6500000   20.4270000  
C 16.9510000   17.1730000   21.7300000  
C 16.0080000   17.4330000   22.7280000  
C 14.7740000   18.0470000   22.3680000  
C 15.6560000   18.6780000   18.7100000  
C 16.8060000   18.0440000   18.2720000  
N 17.4300000   17.4700000   19.3710000  
O 16.3620000   18.4950000   15.9260000  
C 17.2420000   18.0550000   16.8440000  
O 18.3930000   17.7780000   16.5090000  
O 16.1970000   16.9160000   24.0060000  
O 13.8650000   18.2640000   23.3590000  
H 14.9200000   19.1690000   18.1430000  
H 15.5450000   18.5380000   16.4520000  
H 18.2300000   16.9170000   19.3330000  
H 17.1530000   16.9590000   24.1380000  
H 14.3000000   17.9440000   24.1130000  
C 18.1510000   16.5010000   22.0580000  
C 19.0430000   17.1260000   23.0010000  
C 20.2640000   16.5710000   23.1980000  
C 20.6510000   15.2710000   22.7040000  
C 19.7320000   14.6990000   21.7500000  
C 18.4870000   15.2680000   21.4590000  
C 18.9610000   18.3100000   23.8100000  
C 20.1900000   18.3620000   24.5250000  
N 20.9960000   17.2310000   24.1540000  
O 19.6360000   20.3480000   25.5260000  
C 20.6040000   19.4210000   25.3870000  
O 21.6760000   19.4240000   25.9910000  
O 19.9340000   13.4700000   21.1940000  
O 17.6150000   14.6350000   20.5700000  
H 18.2830000   19.0890000   23.7260000  
H 18.9520000   19.9490000   24.9480000  
H 21.8830000   16.9350000   24.5020000  
H 20.6810000   13.0610000   21.5710000  
H 17.9220000   13.9770000   19.9630000  
C 21.9750000   14.6220000   23.0230000  
C 21.8720000   13.5000000   23.8720000  
C 22.9610000   12.8250000   24.1730000  
C 24.2750000   13.1290000   23.7540000  
C 24.3990000   14.2740000   22.9550000  
C 23.2350000   15.0300000   22.5230000  
C 20.7400000   12.8870000   24.4490000  
C 21.2000000   11.7750000   25.0990000  
N 22.6030000   11.7480000   24.9620000  
O 19.0660000   10.9180000   25.8530000  
C 20.4090000   10.7520000   25.9000000  
O 20.9660000    9.8790000   26.5650000  
O 25.6570000   14.5710000   22.4970000  
O 23.4000000   16.1560000   21.7630000  
H 19.6930000   13.2430000   24.3260000  
H 18.9960000   11.3730000   25.0410000  
H 23.1130000   11.0100000   25.4240000  
H 25.6450000   15.3830000   22.0090000  
H 22.5870000   16.7120000   21.8970000  
H 25.0890000   12.4400000   24.1250000  
