78
110 
C 19.1840000    9.3100000   20.4230000  
C 18.6300000    8.9390000   19.1900000  
C 17.8730000    9.8780000   18.4870000  
C 17.7040000   11.1300000   18.9660000  
C 18.1890000   11.5530000   20.2010000  
C 18.9200000   10.5830000   20.9850000  
C 17.1940000    9.8030000   17.2580000  
C 16.7210000   11.0940000   16.9540000  
N 17.0920000   11.9570000   18.0450000  
O 15.9460000   10.7170000   14.7120000  
C 15.9480000   11.5810000   15.7480000  
O 15.2370000   12.5510000   15.7260000  
O 19.3670000   10.9450000   22.2190000  
O 19.7750000    8.3560000   21.1720000  
H 18.8230000    8.0050000   18.6760000  
H 16.8900000    8.8780000   16.7170000  
H 16.5940000   10.0020000   14.8880000  
H 17.0060000   12.9760000   18.0740000  
H 19.3340000   11.9290000   22.1300000  
H 20.1250000    8.8530000   21.9750000  
C 18.0460000   12.9540000   20.6850000  
C 16.9960000   13.3470000   21.6320000  
C 16.8380000   14.6410000   21.9690000  
C 17.5760000   15.7500000   21.4090000  
C 18.5750000   15.4320000   20.4830000  
C 18.7780000   14.0500000   20.1130000  
C 16.1630000   12.5420000   22.5470000  
C 15.6670000   13.5070000   23.4340000  
N 15.9720000   14.7690000   22.9800000  
O 14.2310000   12.1830000   24.9070000  
C 14.7970000   13.4150000   24.6030000  
O 14.4160000   14.4240000   25.1740000  
O 19.3230000   16.4550000   19.9680000  
O 19.7940000   13.7860000   19.2620000  
H 16.0150000   11.4650000   22.5670000  
H 14.3240000   11.5800000   24.1400000  
H 15.6130000   15.5930000   23.4260000  
H 19.1490000   17.2650000   20.4430000  
H 20.1610000   14.6760000   19.1180000  
C 17.2320000   17.1110000   22.0130000  
C 17.5820000   17.4780000   23.3420000  
C 17.2430000   18.7730000   23.7720000  
C 16.7720000   19.8490000   22.9910000  
C 16.5250000   19.4890000   21.6670000  
C 16.8040000   18.1750000   21.1530000  
C 18.2160000   16.7740000   24.3670000  
C 18.3150000   17.7550000   25.3890000  
N 17.7950000   18.9860000   24.9680000  
O 19.1060000   16.3230000   27.0430000  
C 18.9160000   17.6170000   26.7270000  
O 19.1470000   18.5760000   27.4610000  
O 16.1620000   20.5070000   20.8290000  
O 16.5000000   17.8760000   19.8780000  
H 18.4470000   15.7300000   24.4120000  
H 19.0950000   15.8680000   26.1770000  
H 17.7790000   19.7650000   25.5680000  
H 16.2080000   21.3500000   21.2920000  
H 15.9760000   18.6180000   19.5090000  
C 16.6850000   21.2320000   23.5640000  
C 17.4040000   22.2490000   22.9150000  
C 17.3120000   23.5140000   23.3780000  
C 16.5070000   23.9570000   24.4150000  
C 15.7110000   22.9790000   25.0190000  
C 15.8370000   21.5880000   24.6420000  
C 18.3860000   22.2640000   21.9080000  
C 18.9210000   23.5210000   21.8510000  
N 18.1990000   24.3330000   22.7630000  
O 20.3100000   23.1130000   19.9060000  
C 19.9550000   24.0010000   20.8840000  
O 20.3380000   25.1750000   20.8450000  
O 14.8800000   23.3550000   26.0310000  
O 15.0810000   20.5900000   25.2770000  
H 18.6290000   21.3350000   21.3820000  
H 19.6720000   22.4100000   20.0510000  
H 18.4010000   25.2410000   22.9750000  
H 14.4520000   22.5830000   26.3870000  
H 15.2820000   19.8170000   24.6770000  
H 16.5610000   25.0420000   24.6440000  
