78
110 
C 14.7490000   19.4770000   28.2780000  
C 13.4760000   19.9660000   27.9530000  
C 12.9180000   19.5890000   26.6800000  
C 13.7920000   19.0240000   25.7580000  
C 15.1100000   18.6420000   26.0410000  
C 15.5590000   18.7690000   27.4170000  
C 11.7000000   19.9130000   25.9460000  
C 11.8790000   19.3990000   24.6380000  
N 13.1440000   18.8240000   24.5750000  
O  9.9020000   20.2460000   23.7770000  
C 11.0020000   19.5280000   23.5460000  
O 11.2530000   19.0050000   22.4840000  
O 16.8210000   18.2940000   27.7000000  
O 15.1940000   19.7720000   29.5550000  
H 12.8650000   20.4300000   28.7450000  
H 10.8960000   20.5710000   26.2870000  
H 10.0140000   20.4960000   24.6930000  
H 13.4770000   18.2640000   23.7400000  
H 16.9440000   17.4230000   27.2090000  
H 15.8950000   19.1920000   29.7130000  
C 15.9390000   17.9450000   25.0500000  
C 16.6940000   18.7840000   24.2000000  
C 17.2200000   18.2390000   23.0500000  
C 17.2510000   16.8750000   22.6770000  
C 16.4800000   16.0280000   23.5300000  
C 15.8310000   16.5750000   24.6950000  
C 17.0020000   20.2210000   24.2460000  
C 17.8970000   20.4320000   23.1510000  
N 17.8610000   19.2140000   22.3590000  
O 18.6390000   22.6450000   23.5040000  
C 18.5680000   21.6270000   22.6550000  
O 18.9810000   21.7310000   21.5170000  
O 16.3700000   14.7000000   23.2100000  
O 14.9600000   15.8100000   25.3200000  
H 16.7390000   20.9450000   24.9910000  
H 18.3360000   22.2040000   24.3400000  
H 17.9380000   19.1610000   21.3410000  
H 16.3950000   14.4730000   22.2610000  
H 14.2540000   16.3870000   25.6040000  
C 18.0370000   16.3420000   21.5100000  
C 18.9000000   15.2070000   21.5670000  
C 19.5250000   14.7340000   20.4880000  
C 19.5740000   15.3290000   19.2460000  
C 18.7230000   16.4180000   19.1200000  
C 17.9840000   16.9240000   20.2040000  
C 19.3350000   14.4520000   22.7530000  
C 20.2900000   13.5160000   22.2970000  
N 20.3680000   13.6950000   20.8530000  
O 20.6900000   12.5420000   24.4870000  
C 21.1730000   12.6360000   23.2180000  
O 22.2160000   12.1240000   22.8380000  
O 18.6590000   16.9270000   17.8410000  
O 17.1250000   17.9090000   19.8970000  
H 19.1880000   14.6960000   23.8330000  
H 19.8500000   13.0610000   24.4910000  
H 21.0110000   13.2290000   20.2200000  
H 19.1000000   16.2300000   17.2960000  
H 16.9730000   17.9960000   18.9760000  
C 20.2070000   14.6840000   18.0370000  
C 19.7010000   13.5010000   17.4460000  
C 20.3110000   12.9500000   16.4230000  
C 21.5160000   13.4080000   15.8740000  
C 22.1320000   14.5150000   16.4000000  
C 21.4600000   15.1640000   17.5030000  
C 18.4570000   12.7390000   17.7510000  
C 18.4000000   11.7900000   16.7460000  
N 19.5980000   11.8350000   16.0530000  
O 16.2490000   10.9200000   17.2850000  
C 17.2820000   10.8590000   16.4170000  
O 17.3970000    9.9750000   15.5650000  
O 23.2220000   14.9910000   15.7630000  
O 22.0300000   16.2830000   18.0220000  
H 17.6410000   13.0690000   18.3530000  
H 16.3930000   11.7430000   17.8780000  
H 19.8810000   11.3650000   15.2010000  
H 23.6720000   15.5980000   16.2790000  
H 21.4870000   16.6470000   18.7570000  
H 21.9820000   12.9400000   15.0320000  
