78
110 
C 17.3300000   14.9490000   29.0830000  
C 18.3810000   15.4030000   29.8480000  
C 19.3530000   16.1280000   29.1730000  
C 19.2540000   16.4020000   27.8290000  
C 18.1910000   15.9810000   27.0230000  
C 17.2040000   15.2900000   27.7320000  
C 20.7250000   16.4000000   29.5190000  
C 21.2910000   17.0700000   28.4470000  
N 20.4250000   16.9510000   27.3870000  
O 23.2220000   17.9240000   29.4800000  
C 22.5600000   17.7740000   28.3960000  
O 22.9550000   18.2150000   27.3960000  
O 16.1200000   14.8690000   27.0600000  
O 16.3530000   14.2120000   29.7600000  
H 18.3930000   15.2050000   30.9080000  
H 21.1240000   16.2490000   30.5370000  
H 22.5340000   17.6030000   30.0860000  
H 20.6230000   17.1270000   26.4120000  
H 16.2330000   15.2230000   26.1830000  
H 15.7500000   13.9400000   29.0970000  
C 18.0730000   16.2200000   25.5180000  
C 17.9680000   15.1730000   24.5660000  
C 17.7470000   15.4520000   23.2380000  
C 17.7310000   16.7210000   22.6510000  
C 17.8690000   17.7660000   23.6170000  
C 18.0180000   17.5460000   25.0000000  
C 18.1640000   13.7560000   24.5620000  
C 17.8080000   13.2190000   23.2400000  
N 17.5340000   14.3330000   22.4270000  
O 18.2170000   10.8600000   23.7640000  
C 17.6420000   11.7600000   22.8810000  
O 17.1560000   11.4330000   21.7790000  
O 17.7480000   19.0160000   23.2240000  
O 18.0950000   18.6390000   25.8360000  
H 18.4350000   13.1430000   25.3440000  
H 18.0840000   11.2340000   24.6290000  
H 17.3090000   14.4200000   21.4430000  
H 17.3720000   19.0050000   22.3230000  
H 18.2390000   19.4360000   25.3150000  
C 17.5260000   16.9640000   21.1890000  
C 16.2540000   16.6320000   20.7100000  
C 16.0090000   16.6550000   19.3480000  
C 16.9560000   16.9550000   18.3540000  
C 18.2250000   17.4590000   18.8710000  
C 18.4890000   17.4580000   20.2640000  
C 15.0670000   16.1980000   21.3640000  
C 14.1810000   15.7910000   20.2970000  
N 14.7970000   16.1740000   19.0660000  
O 12.6260000   14.6630000   21.7110000  
C 12.8600000   15.0430000   20.4430000  
O 12.1130000   14.8140000   19.5050000  
O 19.1880000   17.8570000   17.9620000  
O 19.6810000   17.9050000   20.6820000  
H 14.9600000   16.0750000   22.4540000  
H 13.3010000   15.0430000   22.3240000  
H 14.2990000   16.1770000   18.2070000  
H 18.9710000   17.4670000   17.0760000  
H 19.9750000   18.4380000   19.8810000  
C 16.6300000   16.8590000   16.9010000  
C 16.4090000   18.0300000   16.1020000  
C 16.2470000   17.9120000   14.7260000  
C 16.1900000   16.5860000   14.1360000  
C 16.4040000   15.4100000   14.9200000  
C 16.5940000   15.5730000   16.2980000  
C 16.5160000   19.4210000   16.3570000  
C 16.3830000   20.0890000   15.1350000  
N 16.2280000   19.1380000   14.1010000  
O 16.5240000   22.2780000   16.0160000  
C 16.4890000   21.5190000   14.8860000  
O 16.4930000   22.1230000   13.8270000  
O 16.0720000   14.2080000   14.3420000  
O 16.6920000   14.4820000   17.0780000  
H 16.7240000   19.9360000   17.3100000  
H 16.6870000   21.6820000   16.7080000  
H 16.0650000   19.3210000   13.1250000  
H 16.2490000   13.5060000   14.9180000  
H 16.5430000   14.7210000   18.0070000  
H 16.0060000   16.4900000   13.0800000  
