78
110 
C 18.0330000   14.1020000   28.8170000  
C 19.3080000   13.8940000   29.3570000  
C 20.3490000   14.0270000   28.4060000  
C 20.0950000   14.5200000   27.1030000  
C 18.8580000   14.8520000   26.5910000  
C 17.8190000   14.5190000   27.4640000  
C 21.8410000   14.0810000   28.5930000  
C 22.3470000   14.5450000   27.3300000  
N 21.2480000   14.8130000   26.4620000  
O 24.6480000   14.2420000   27.9650000  
C 23.7820000   14.6910000   26.9680000  
O 24.2280000   15.0580000   25.8850000  
O 16.5340000   14.5740000   26.9680000  
O 16.9980000   13.9360000   29.6500000  
H 19.5030000   13.6360000   30.4100000  
H 22.4900000   14.0360000   29.4640000  
H 24.0710000   13.9570000   28.6920000  
H 21.2020000   15.3650000   25.5570000  
H 16.5170000   14.7230000   25.9450000  
H 16.2590000   14.4320000   29.1430000  
C 18.5720000   15.3350000   25.1440000  
C 17.7900000   14.6650000   24.1820000  
C 17.7750000   15.0610000   22.8140000  
C 18.2130000   16.2950000   22.3200000  
C 18.8610000   17.0710000   23.3540000  
C 19.0090000   16.5970000   24.7560000  
C 17.1550000   13.3890000   24.2400000  
C 16.7790000   13.0200000   22.9220000  
N 17.1570000   14.0500000   22.0530000  
O 16.0350000   10.7740000   23.4690000  
C 16.2470000   11.6540000   22.4720000  
O 15.9800000   11.3680000   21.3010000  
O 19.3030000   18.3850000   23.1940000  
O 19.6410000   17.3870000   25.6630000  
H 17.1140000   12.6220000   25.0190000  
H 15.8660000   11.3300000   24.2380000  
H 17.0280000   14.0550000   21.0500000  
H 19.1600000   18.6290000   22.2780000  
H 19.8380000   18.2140000   25.1410000  
C 17.7820000   16.7640000   21.0100000  
C 16.3770000   16.8870000   20.8380000  
C 15.9030000   17.3460000   19.6600000  
C 16.6200000   17.7380000   18.5060000  
C 18.0820000   17.7270000   18.6800000  
C 18.6270000   17.2180000   19.9200000  
C 15.2920000   16.7140000   21.7980000  
C 14.1360000   16.9770000   21.0760000  
N 14.5540000   17.4930000   19.8330000  
O 12.5250000   16.2630000   22.6800000  
C 12.7350000   16.8500000   21.4690000  
O 11.8590000   17.2290000   20.7170000  
O 18.9660000   18.1740000   17.6940000  
O 20.0180000   17.2270000   20.1190000  
H 15.4650000   16.3500000   22.7860000  
H 13.4150000   16.0560000   23.0930000  
H 13.9540000   18.0700000   19.2030000  
H 18.4180000   18.8890000   17.3610000  
H 20.4210000   17.5340000   19.2850000  
C 15.9400000   18.0570000   17.1900000  
C 16.0060000   19.3460000   16.5900000  
C 15.3450000   19.6460000   15.4250000  
C 14.5650000   18.7230000   14.7200000  
C 14.4500000   17.4460000   15.2840000  
C 15.1200000   17.1220000   16.5230000  
C 16.7140000   20.5530000   17.0210000  
C 16.3380000   21.5600000   16.1430000  
N 15.6760000   20.9220000   15.0770000  
O 17.2140000   23.2760000   17.5890000  
C 16.5320000   23.0060000   16.4370000  
O 16.1170000   23.8780000   15.6310000  
O 13.9490000   16.4010000   14.6040000  
O 15.0160000   15.8160000   17.0230000  
H 17.1800000   20.6970000   18.0020000  
H 17.5950000   22.4010000   17.8390000  
H 15.3310000   21.3040000   14.2140000  
H 13.9200000   15.7190000   15.2420000  
H 15.5870000   15.7510000   17.7590000  
H 14.1510000   18.9940000   13.7020000  
