78
110 
C 12.4630000   19.9510000   17.9680000  
C 11.3480000   19.1720000   17.5890000  
C 11.1090000   17.9280000   18.1640000  
C 11.9720000   17.4360000   19.0860000  
C 13.0960000   18.1350000   19.5100000  
C 13.3340000   19.4040000   18.9640000  
C 10.0680000   17.0210000   18.0770000  
C 10.2120000   16.0160000   19.0280000  
N 11.4580000   16.2490000   19.6540000  
O  8.0570000   14.8790000   18.6380000  
C  9.1920000   14.9650000   19.4000000  
O  9.4410000   14.1790000   20.2810000  
O 14.5630000   19.9010000   19.2860000  
O 12.8060000   21.0980000   17.3690000  
H 10.7810000   19.5510000   16.8010000  
H  9.0970000   17.1170000   17.6070000  
H  7.9140000   15.6590000   18.1810000  
H 11.7910000   15.8370000   20.5510000  
H 14.8430000   19.3290000   20.0090000  
H 13.2840000   21.5600000   17.9970000  
C 14.1260000   17.5600000   20.4810000  
C 15.0000000   16.4730000   20.0980000  
C 16.0080000   16.0370000   20.8980000  
C 16.3490000   16.5730000   22.1520000  
C 15.4360000   17.6000000   22.6370000  
C 14.4110000   18.1480000   21.7740000  
C 15.1890000   15.7220000   18.8630000  
C 16.1540000   14.7180000   19.0820000  
N 16.7630000   14.9450000   20.3620000  
O 15.9220000   13.7230000   16.9520000  
C 16.6550000   13.7360000   18.1020000  
O 17.5240000   12.8980000   18.3350000  
O 15.5350000   18.0170000   23.9710000  
O 13.6470000   19.1450000   22.2330000  
H 14.5550000   15.7900000   17.9810000  
H 15.5230000   14.5960000   17.0690000  
H 17.6690000   14.5420000   20.6260000  
H 16.3600000   17.6030000   24.3280000  
H 13.8680000   19.3180000   23.1570000  
C 17.6270000   16.1930000   22.8600000  
C 18.8950000   16.6500000   22.4420000  
C 20.0770000   16.3900000   23.0370000  
C 20.2170000   15.6730000   24.2460000  
C 18.9430000   15.3000000   24.8790000  
C 17.6840000   15.5760000   24.1860000  
C 19.2050000   17.2650000   21.2370000  
C 20.6050000   17.3430000   21.1490000  
N 21.1350000   16.7010000   22.2310000  
O 20.5680000   18.4740000   19.0430000  
C 21.3380000   18.0860000   20.1210000  
O 22.5160000   18.3140000   20.0900000  
O 18.9280000   14.4780000   25.9660000  
O 16.4910000   15.2310000   24.7980000  
H 18.5370000   17.7990000   20.5820000  
H 19.6930000   18.0790000   19.2090000  
H 22.1110000   16.7480000   22.6360000  
H 19.9260000   14.1640000   25.9820000  
H 16.7430000   14.8830000   25.6780000  
C 21.5470000   15.0410000   24.6490000  
C 22.5950000   15.8150000   25.2220000  
C 23.7940000   15.3430000   25.7580000  
C 24.0090000   13.9640000   25.7880000  
C 22.9650000   13.1410000   25.2780000  
C 21.7850000   13.6400000   24.7140000  
C 22.5910000   17.2420000   25.4720000  
C 23.7940000   17.5410000   26.1820000  
N 24.6060000   16.4220000   26.0930000  
O 23.3230000   19.7590000   26.7270000  
C 24.2740000   18.8400000   26.6350000  
O 25.3960000   19.0680000   26.9590000  
O 23.1380000   11.7940000   25.2610000  
O 20.7810000   12.8090000   24.2790000  
H 21.7460000   17.8950000   25.2700000  
H 22.5240000   19.3190000   26.3380000  
H 25.6280000   16.3770000   26.2190000  
H 22.3290000   11.3590000   25.0830000  
H 20.3550000   13.1250000   23.4700000  
H 24.9320000   13.5030000   26.0860000  
