78
110 
C 13.6690000   16.4040000   28.3120000  
C 14.0760000   17.5300000   28.9640000  
C 14.9820000   18.4290000   28.3900000  
C 15.4230000   18.3110000   27.0750000  
C 14.9340000   17.2030000   26.2910000  
C 14.0450000   16.2890000   26.9340000  
C 15.5650000   19.6750000   28.9430000  
C 16.3180000   20.2380000   27.9230000  
N 16.3260000   19.3330000   26.8370000  
O 16.8550000   22.1810000   29.1510000  
C 17.0610000   21.5460000   27.9600000  
O 17.8110000   21.9520000   27.1130000  
O 13.5810000   15.1500000   26.2840000  
O 13.0980000   15.4300000   29.0380000  
H 13.7330000   17.6670000   29.9700000  
H 15.4660000   20.0580000   29.9510000  
H 16.2250000   21.6430000   29.6000000  
H 16.7230000   19.5160000   25.9140000  
H 14.0220000   15.0850000   25.4430000  
H 13.0410000   14.7340000   28.3040000  
C 15.4680000   16.9600000   24.9380000  
C 16.8400000   16.8800000   24.7130000  
C 17.3110000   16.8130000   23.4230000  
C 16.5210000   16.7800000   22.2540000  
C 15.1140000   16.6980000   22.4530000  
C 14.6340000   16.8520000   23.7720000  
C 18.0100000   16.8120000   25.5100000  
C 19.1340000   16.8520000   24.6970000  
N 18.7330000   16.8950000   23.3710000  
O 20.5800000   16.9730000   26.5740000  
C 20.5260000   16.9470000   25.1950000  
O 21.4520000   17.0230000   24.4400000  
O 14.2190000   16.4030000   21.4740000  
O 13.2700000   16.9900000   23.9440000  
H 18.0220000   17.0170000   26.5920000  
H 19.6420000   17.1500000   26.8850000  
H 19.3260000   17.1860000   22.5700000  
H 14.7150000   16.3370000   20.6550000  
H 13.1280000   17.5930000   24.6860000  
C 17.1610000   16.8210000   20.8890000  
C 18.1360000   15.9120000   20.5130000  
C 18.7880000   15.9770000   19.3030000  
C 18.4140000   16.7720000   18.2330000  
C 17.4420000   17.7710000   18.5650000  
C 16.8330000   17.7140000   19.8430000  
C 18.8130000   14.8350000   21.2450000  
C 19.9430000   14.4080000   20.4600000  
N 19.9490000   15.2020000   19.2700000  
O 20.8130000   12.7480000   22.1030000  
C 20.9200000   13.3120000   20.8550000  
O 21.9340000   13.1780000   20.1870000  
O 16.9180000   18.5530000   17.5930000  
O 15.8630000   18.6060000   20.0130000  
H 18.4610000   14.3460000   22.1700000  
H 20.0600000   13.1750000   22.5680000  
H 20.6470000   15.2080000   18.5410000  
H 17.5390000   18.4270000   16.8500000  
H 15.7110000   19.1060000   19.1580000  
C 18.8310000   16.3560000   16.8260000  
C 18.4130000   15.1050000   16.3340000  
C 18.8320000   14.6550000   15.1230000  
C 19.6570000   15.4330000   14.2820000  
C 20.1490000   16.6660000   14.7630000  
C 19.6550000   17.1880000   16.0490000  
C 17.5070000   14.1270000   16.9110000  
C 17.3770000   13.1400000   15.9190000  
N 18.2260000   13.4630000   14.8670000  
O 15.9920000   11.5240000   17.0850000  
C 16.5790000   11.8590000   15.9070000  
O 16.5310000   11.0700000   14.9800000  
O 21.0890000   17.2730000   13.9820000  
O 20.0520000   18.4130000   16.4560000  
H 17.0070000   14.1950000   17.9290000  
H 16.3730000   12.1890000   17.7060000  
H 18.3300000   12.9890000   13.9660000  
H 21.3100000   18.1510000   14.4390000  
H 20.0520000   18.5010000   17.3980000  
H 19.9180000   15.0090000   13.3100000  
