78
110 
C 14.7370000   14.2130000   15.3410000  
C 13.4900000   13.5280000   15.6500000  
C 12.9180000   13.8460000   16.9330000  
C 13.5130000   14.7100000   17.7610000  
C 14.7900000   15.3330000   17.5540000  
C 15.4490000   15.0050000   16.3300000  
C 11.6070000   13.4780000   17.4590000  
C 11.4880000   14.3080000   18.5620000  
N 12.6690000   14.9910000   18.7960000  
O  9.2690000   13.7070000   19.0950000  
C 10.2800000   14.5640000   19.4800000  
O 10.2110000   15.2960000   20.5030000  
O 16.5670000   15.7500000   15.9720000  
O 15.2860000   14.0340000   14.1030000  
H 12.9660000   13.1090000   14.8000000  
H 10.9000000   12.7300000   17.0310000  
H  9.5920000   13.2340000   18.3180000  
H 12.7830000   15.8860000   19.2590000  
H 16.6160000   16.4950000   16.5740000  
H 15.8990000   14.7470000   13.9140000  
C 15.5030000   15.9890000   18.7230000  
C 15.6440000   15.1800000   19.8810000  
C 16.2720000   15.6100000   21.0290000  
C 16.7220000   16.9310000   21.2570000  
C 16.6850000   17.7380000   20.0650000  
C 16.0810000   17.3400000   18.8390000  
C 15.3310000   13.7960000   20.2100000  
C 15.7090000   13.5610000   21.4970000  
N 16.2850000   14.6560000   22.0730000  
O 14.6730000   11.5610000   21.5400000  
C 15.3970000   12.4030000   22.2530000  
O 15.7360000   12.2170000   23.4360000  
O 17.4090000   18.8590000   20.0290000  
O 16.3030000   18.1390000   17.7820000  
H 14.8500000   13.0920000   19.5550000  
H 14.2850000   12.0680000   20.8260000  
H 16.7290000   14.7190000   22.9180000  
H 17.5980000   19.0540000   20.9510000  
H 16.7770000   18.9100000   18.1650000  
C 17.6110000   17.2460000   22.3300000  
C 18.9230000   16.7030000   22.3990000  
C 19.7710000   16.9070000   23.4340000  
C 19.4120000   17.5880000   24.6090000  
C 18.0810000   18.1340000   24.6150000  
C 17.2110000   18.0230000   23.4660000  
C 19.6130000   15.8650000   21.4630000  
C 20.8910000   15.7360000   21.9400000  
N 21.0070000   16.3870000   23.1810000  
O 21.8090000   14.4450000   20.0830000  
C 21.9960000   15.0060000   21.3050000  
O 23.0490000   14.9300000   21.8940000  
O 17.5910000   18.9100000   25.6060000  
O 15.8850000   18.4180000   23.5360000  
H 19.2500000   15.6140000   20.4260000  
H 20.8890000   14.6530000   19.9040000  
H 21.8660000   16.5780000   23.6500000  
H 18.3490000   18.8910000   26.2400000  
H 15.6540000   18.4350000   24.4640000  
C 20.3680000   17.8420000   25.7900000  
C 20.7660000   19.1180000   26.0580000  
C 21.6670000   19.3640000   27.0460000  
C 22.2250000   18.3600000   27.8540000  
C 21.9110000   17.0050000   27.5690000  
C 20.9760000   16.7660000   26.5100000  
C 20.4780000   20.4540000   25.4610000  
C 21.1440000   21.3710000   26.2410000  
N 21.8480000   20.7320000   27.2620000  
O 20.3780000   23.3500000   25.1230000  
C 21.1500000   22.8200000   26.1070000  
O 21.8610000   23.5780000   26.7950000  
O 22.5210000   15.9090000   28.1100000  
O 20.5270000   15.5030000   26.3130000  
H 20.0980000   20.6980000   24.5000000  
H 19.9470000   22.5530000   24.6820000  
H 22.5730000   21.1620000   27.8630000  
H 22.2560000   15.1320000   27.5150000  
H 19.7640000   15.6520000   25.7280000  
H 22.7950000   18.5930000   28.7700000  
