78
110 
C 11.8570000   21.3380000   20.4950000  
C 10.6670000   20.6670000   20.8930000  
C 10.7660000   19.3520000   21.2930000  
C 11.9450000   18.8010000   21.6290000  
C 13.2110000   19.3750000   21.3560000  
C 13.1330000   20.6640000   20.6800000  
C  9.7720000   18.3500000   21.7940000  
C 10.5040000   17.2120000   22.2280000  
N 11.8410000   17.4960000   22.1170000  
O  8.6220000   15.8970000   22.7540000  
C 10.0130000   15.9100000   22.6740000  
O 10.7040000   14.9370000   22.9650000  
O 14.2510000   21.3510000   20.5390000  
O 11.8060000   22.6280000   19.9760000  
H  9.7200000   21.1380000   20.7430000  
H  8.6280000   18.3610000   21.8720000  
H  8.4480000   16.8370000   22.8250000  
H 12.5710000   16.8640000   22.3200000  
H 15.0300000   20.8490000   20.8820000  
H 12.5560000   23.0610000   20.3950000  
C 14.4590000   18.5950000   21.5390000  
C 15.0480000   17.9470000   20.4450000  
C 16.2120000   17.2350000   20.5520000  
C 16.9100000   17.0330000   21.7370000  
C 16.3460000   17.6810000   22.8620000  
C 15.1300000   18.4200000   22.7830000  
C 14.7450000   18.0510000   19.0990000  
C 15.6560000   17.2210000   18.4030000  
N 16.6000000   16.7380000   19.3280000  
O 14.3910000   17.1830000   16.3980000  
C 15.3800000   16.5980000   17.1190000  
O 16.0670000   15.6420000   16.7570000  
O 17.0210000   17.5060000   24.0520000  
O 14.6990000   19.0880000   23.8390000  
H 13.9660000   18.6500000   18.7030000  
H 14.2240000   18.0490000   16.6900000  
H 17.3280000   15.9790000   19.2690000  
H 17.7350000   16.9470000   23.7890000  
H 15.3770000   18.9420000   24.5140000  
C 18.0940000   16.1810000   21.6900000  
C 19.3480000   16.7290000   21.6370000  
C 20.4590000   15.9650000   21.7690000  
C 20.4540000   14.5920000   21.8860000  
C 19.1660000   14.0020000   21.9820000  
C 18.0060000   14.7720000   21.8230000  
C 19.8130000   18.0740000   21.6790000  
C 21.1800000   18.0420000   21.7020000  
N 21.6050000   16.6680000   21.7490000  
O 21.4000000   20.3510000   21.5130000  
C 22.0590000   19.2140000   21.6540000  
O 23.2800000   19.1210000   21.7710000  
O 19.1850000   12.6620000   22.2570000  
O 16.8250000   14.1070000   21.5260000  
H 19.2400000   18.9860000   21.7220000  
H 20.4710000   20.0250000   21.3680000  
H 22.5540000   16.4340000   22.0220000  
H 20.0600000   12.4570000   22.5770000  
H 16.9740000   13.2130000   21.7970000  
C 21.7620000   13.8700000   22.1400000  
C 22.0390000   13.4630000   23.4500000  
C 23.3090000   12.9660000   23.7650000  
C 24.3150000   12.8160000   22.7730000  
C 23.9780000   13.1080000   21.4370000  
C 22.7070000   13.6070000   21.1370000  
C 21.4100000   13.6210000   24.7730000  
C 22.2080000   12.9910000   25.6920000  
N 23.3780000   12.6110000   25.0900000  
O 20.8600000   13.4950000   27.5980000  
C 21.9390000   12.8100000   27.1420000  
O 22.6100000   12.1030000   27.8580000  
O 24.9060000   12.8600000   20.5130000  
O 22.4600000   14.1350000   19.9060000  
H 20.4250000   14.0460000   25.0120000  
H 20.3910000   13.7330000   26.7370000  
H 24.1830000   12.2440000   25.5490000  
H 24.4580000   12.9640000   19.6170000  
H 21.7510000   14.7670000   19.9300000  
H 25.2510000   12.3870000   22.9540000  
