78
110 
C 17.3090000    9.7220000   18.9560000  
C 16.7050000    9.6180000   17.6880000  
C 16.2450000   10.7340000   17.1150000  
C 16.2340000   11.9530000   17.7560000  
C 16.6660000   12.0970000   19.1300000  
C 17.2740000   10.9230000   19.7170000  
C 15.5520000   10.9490000   15.8730000  
C 15.1260000   12.2960000   15.8900000  
N 15.5460000   12.9110000   17.0710000  
O 13.9990000   12.2350000   13.8080000  
C 14.2790000   12.9600000   14.8370000  
O 13.8470000   14.0980000   14.8690000  
O 17.8000000   10.9090000   20.9380000  
O 18.0260000    8.7240000   19.5010000  
H 16.5310000    8.6140000   17.1590000  
H 15.3780000   10.2050000   15.1000000  
H 14.5310000   11.4500000   13.8810000  
H 15.6440000   13.8980000   17.2520000  
H 18.0330000   11.8460000   21.2130000  
H 18.3520000    9.1270000   20.4160000  
C 16.8380000   13.4170000   19.8020000  
C 16.3280000   13.6570000   21.0840000  
C 16.8130000   14.6920000   21.8230000  
C 17.5110000   15.7890000   21.2950000  
C 18.0440000   15.5780000   20.0120000  
C 17.7570000   14.4000000   19.2810000  
C 15.5530000   12.8960000   22.1100000  
C 15.6020000   13.5470000   23.3580000  
N 16.3640000   14.7140000   23.1260000  
O 14.5350000   11.9020000   24.8230000  
C 15.0810000   13.1240000   24.6440000  
O 15.1580000   13.8030000   25.6510000  
O 18.9160000   16.4810000   19.3890000  
O 18.3460000   14.2600000   18.0960000  
H 15.0810000   11.9390000   21.8680000  
H 14.6280000   11.4340000   23.9540000  
H 16.6200000   15.4050000   23.8720000  
H 18.7850000   17.2630000   19.9690000  
H 19.0410000   14.9740000   17.9930000  
C 17.6150000   17.0490000   22.1350000  
C 18.4850000   17.1130000   23.2100000  
C 18.5290000   18.2960000   23.9260000  
C 17.6810000   19.4020000   23.8960000  
C 16.8330000   19.3050000   22.7620000  
C 16.7940000   18.1970000   21.8560000  
C 19.5690000   16.2380000   23.6280000  
C 20.0950000   16.8910000   24.7580000  
N 19.4890000   18.1210000   24.9310000  
O 21.9370000   15.2830000   25.0720000  
C 21.3110000   16.4210000   25.5410000  
O 21.7440000   16.9570000   26.5390000  
O 16.0260000   20.3510000   22.4290000  
O 15.8200000   18.1760000   20.8640000  
H 20.1200000   15.3940000   23.1440000  
H 21.4330000   14.9140000   24.3300000  
H 19.8860000   18.8460000   25.4730000  
H 16.2840000   21.1160000   22.9480000  
H 15.1840000   18.9030000   21.0710000  
C 17.7900000   20.5950000   24.8140000  
C 18.2210000   21.8870000   24.2780000  
C 18.3510000   22.9810000   25.1190000  
C 18.1910000   22.8940000   26.4980000  
C 17.9300000   21.6930000   27.1270000  
C 17.6070000   20.5770000   26.2790000  
C 18.4690000   22.4280000   22.9230000  
C 18.8540000   23.7540000   23.0320000  
N 18.7740000   24.1310000   24.4080000  
O 19.3570000   24.2150000   20.8050000  
C 19.2110000   24.7300000   22.0320000  
O 19.3190000   25.9250000   22.2490000  
O 17.7970000   21.5930000   28.4140000  
O 17.2750000   19.4390000   26.9320000  
H 18.0750000   21.9930000   22.0180000  
H 19.4390000   23.3450000   21.1340000  
H 18.9020000   25.0880000   24.8530000  
H 17.4960000   20.6640000   28.4510000  
H 16.7270000   18.8020000   26.3370000  
H 18.2060000   23.7630000   27.1410000  
