78
110 
C 19.0840000   12.9250000   28.2780000  
C 20.4850000   12.6980000   28.2610000  
C 21.2340000   13.2200000   27.1980000  
C 20.6760000   13.9660000   26.2880000  
C 19.2680000   14.2780000   26.2590000  
C 18.5040000   13.8210000   27.3430000  
C 22.6670000   13.2300000   26.9510000  
C 22.8600000   13.8610000   25.7330000  
N 21.6240000   14.4530000   25.4300000  
O 25.2860000   13.6610000   25.7460000  
C 24.2020000   13.9910000   25.0340000  
O 24.3280000   14.5300000   23.9450000  
O 17.2020000   14.0300000   27.3710000  
O 18.2960000   12.3740000   29.2730000  
H 21.0030000   12.1760000   29.0530000  
H 23.4160000   12.7320000   27.5690000  
H 24.8610000   13.2100000   26.4540000  
H 21.4450000   15.0190000   24.6030000  
H 16.9420000   14.9330000   27.0670000  
H 17.4330000   12.8110000   29.0450000  
C 18.6770000   15.0470000   25.0720000  
C 17.7130000   14.4360000   24.2950000  
C 17.1250000   15.0920000   23.2590000  
C 17.4360000   16.4110000   22.8250000  
C 18.3610000   17.0690000   23.6460000  
C 18.9810000   16.3950000   24.7910000  
C 17.1270000   13.1130000   24.2030000  
C 16.2850000   13.0140000   23.1000000  
N 16.3310000   14.2520000   22.5480000  
O 15.6420000   10.7590000   23.3200000  
C 15.4000000   11.9440000   22.7170000  
O 14.4380000   12.0050000   21.9630000  
O 18.8560000   18.2620000   23.2630000  
O 19.9910000   16.9420000   25.5040000  
H 17.3790000   12.3020000   24.9030000  
H 16.5290000   10.7420000   23.7850000  
H 15.6790000   14.5540000   21.8350000  
H 18.3170000   18.5410000   22.4940000  
H 20.3910000   17.6990000   24.9930000  
C 16.9450000   16.8700000   21.5410000  
C 15.6000000   17.0370000   21.1890000  
C 15.2330000   17.6720000   19.9990000  
C 16.1060000   17.9420000   18.9700000  
C 17.4470000   17.6410000   19.2130000  
C 17.8270000   17.1330000   20.4980000  
C 14.3830000   16.8300000   21.9670000  
C 13.3400000   17.4000000   21.2680000  
N 13.8210000   17.8430000   19.9800000  
O 11.6530000   17.1290000   22.9280000  
C 11.9610000   17.6350000   21.7040000  
O 11.1050000   18.0900000   20.9350000  
O 18.4900000   17.7820000   18.3350000  
O 19.1830000   16.7550000   20.6280000  
H 14.3480000   16.5180000   23.0040000  
H 12.5090000   16.8180000   23.3240000  
H 13.2920000   18.3570000   19.2760000  
H 18.0490000   17.8670000   17.4830000  
H 19.5660000   16.7430000   19.7070000  
C 15.6780000   18.5330000   17.6190000  
C 16.2150000   19.8080000   17.1680000  
C 15.8880000   20.3560000   15.9110000  
C 14.9620000   19.7910000   15.0860000  
C 14.3930000   18.5920000   15.5370000  
C 14.7290000   17.9560000   16.7590000  
C 17.2530000   20.6640000   17.7450000  
C 17.4140000   21.7860000   16.9060000  
N 16.6270000   21.5310000   15.7660000  
O 18.8570000   23.1470000   18.3560000  
C 18.1520000   23.0130000   17.1750000  
O 17.9670000   23.9520000   16.3860000  
O 13.5050000   17.8830000   14.7100000  
O 14.1330000   16.8010000   17.0130000  
H 17.7300000   20.5190000   18.6980000  
H 18.8550000   22.2870000   18.8910000  
H 16.4180000   22.2530000   15.0640000  
H 13.2640000   17.1160000   15.2520000  
H 14.5730000   16.2510000   17.6110000  
H 14.7060000   20.3210000   14.1790000  
