78
110 
C 16.7770000   17.3080000   29.4190000  
C 18.0480000   16.8970000   29.9350000  
C 19.0040000   16.5020000   29.0040000  
C 18.8100000   16.4940000   27.6400000  
C 17.5930000   16.9350000   27.0600000  
C 16.5920000   17.2750000   27.9650000  
C 20.3440000   16.0660000   29.2500000  
C 20.8190000   15.6580000   27.9920000  
N 19.9230000   16.0210000   26.9680000  
O 22.9090000   15.0800000   28.9230000  
C 22.1260000   15.0630000   27.8560000  
O 22.5290000   14.5640000   26.8660000  
O 15.4430000   17.9210000   27.4970000  
O 15.8070000   17.7750000   30.3050000  
H 18.3030000   17.0160000   30.9800000  
H 20.7630000   15.9500000   30.2460000  
H 22.4770000   15.5500000   29.5860000  
H 20.0710000   15.9980000   25.9850000  
H 15.4060000   18.0330000   26.5850000  
H 14.9470000   18.0690000   29.9190000  
C 17.3410000   16.9250000   25.5730000  
C 17.2800000   15.6820000   24.9030000  
C 17.0930000   15.5950000   23.5610000  
C 16.9490000   16.6950000   22.7540000  
C 16.9760000   17.9730000   23.4330000  
C 17.0960000   18.0630000   24.8360000  
C 17.5810000   14.3400000   25.3450000  
C 17.6740000   13.5310000   24.2420000  
N 17.2520000   14.3120000   23.1270000  
O 18.2600000   11.5830000   25.3790000  
C 17.9700000   12.0830000   24.1520000  
O 18.0320000   11.3440000   23.1430000  
O 16.7850000   19.1150000   22.6800000  
O 16.9360000   19.2570000   25.4750000  
H 17.6820000   14.0750000   26.3520000  
H 18.4750000   12.3400000   25.9520000  
H 17.1940000   13.9820000   22.1620000  
H 16.4280000   18.8800000   21.8000000  
H 16.9880000   19.9460000   24.8290000  
C 16.9760000   16.6080000   21.2440000  
C 15.8370000   16.8620000   20.4200000  
C 15.9090000   16.7880000   19.1040000  
C 16.9720000   16.3030000   18.3350000  
C 18.1780000   16.0480000   19.0850000  
C 18.1530000   16.2150000   20.5010000  
C 14.5230000   17.1930000   20.7550000  
C 13.8710000   17.3970000   19.5690000  
N 14.7410000   17.1810000   18.4740000  
O 11.6710000   17.7550000   20.5970000  
C 12.3810000   17.7910000   19.4270000  
O 11.8180000   18.2410000   18.4290000  
O 19.2930000   15.5840000   18.4720000  
O 19.2790000   15.8070000   21.1360000  
H 14.0720000   17.3780000   21.6990000  
H 12.2200000   17.2650000   21.2650000  
H 14.5650000   17.4530000   17.5040000  
H 19.0580000   15.7400000   17.5500000  
H 19.9350000   15.2610000   20.6600000  
C 16.8930000   16.2360000   16.9030000  
C 17.6040000   17.1760000   16.0680000  
C 17.4990000   17.1200000   14.6970000  
C 16.5550000   16.3040000   14.0190000  
C 15.8360000   15.3680000   14.7820000  
C 15.9880000   15.3230000   16.1550000  
C 18.4710000   18.2550000   16.3420000  
C 18.9350000   18.7730000   15.1180000  
N 18.2810000   18.1040000   14.1150000  
O 20.3910000   20.3950000   16.1400000  
C 19.9980000   19.8490000   14.9400000  
O 20.4160000   20.0270000   13.8130000  
O 14.8980000   14.6040000   14.1420000  
O 15.4090000   14.2530000   16.8300000  
H 18.7700000   18.5740000   17.3510000  
H 19.7910000   20.1280000   16.8980000  
H 18.2990000   18.3390000   13.0910000  
H 14.4700000   14.0010000   14.7950000  
H 15.6370000   14.3200000   17.7520000  
H 16.5050000   16.3530000   12.9580000  
