78
110 
C 15.0950000   17.7650000   28.7850000  
C 15.5310000   18.9760000   29.2620000  
C 16.0540000   19.8290000   28.2020000  
C 16.1490000   19.4500000   26.9020000  
C 15.8600000   18.1610000   26.4790000  
C 15.3150000   17.3290000   27.4330000  
C 16.4850000   21.1870000   28.2500000  
C 16.7900000   21.6360000   26.9800000  
N 16.6550000   20.4690000   26.1600000  
O 17.2490000   23.9070000   27.6090000  
C 17.0850000   23.0100000   26.6010000  
O 17.2920000   23.3590000   25.4750000  
O 14.9720000   15.9940000   27.1460000  
O 14.5650000   16.9070000   29.7540000  
H 15.4510000   19.2130000   30.2940000  
H 16.3000000   21.8820000   29.0190000  
H 16.8840000   23.4350000   28.4320000  
H 16.7020000   20.4530000   25.1550000  
H 15.1690000   15.8530000   26.1990000  
H 14.2040000   16.0600000   29.3680000  
C 16.2260000   17.6570000   25.1320000  
C 17.2650000   16.6930000   24.9890000  
C 17.7140000   16.3220000   23.7370000  
C 17.2530000   16.8670000   22.5060000  
C 16.2040000   17.8670000   22.6530000  
C 15.6940000   18.1960000   23.9510000  
C 18.0050000   16.0190000   25.9680000  
C 18.9080000   15.2400000   25.2310000  
N 18.7860000   15.5060000   23.9060000  
O 19.7190000   14.3910000   27.2000000  
C 19.8620000   14.3330000   25.8900000  
O 20.7410000   13.7550000   25.3080000  
O 15.6230000   18.3530000   21.5280000  
O 14.9050000   19.2660000   24.0490000  
H 17.9450000   16.1560000   27.0200000  
H 18.9430000   14.9680000   27.3170000  
H 19.2760000   14.9660000   23.2030000  
H 15.9270000   17.7930000   20.8000000  
H 14.7080000   19.5000000   23.1800000  
C 17.6560000   16.4020000   21.1460000  
C 17.6720000   15.0660000   20.8160000  
C 18.1010000   14.6670000   19.5740000  
C 18.5310000   15.4830000   18.5360000  
C 18.6800000   16.8690000   18.9160000  
C 18.2650000   17.3030000   20.1760000  
C 17.2350000   13.9250000   21.5850000  
C 17.3300000   12.8340000   20.6930000  
N 17.9440000   13.2600000   19.4710000  
O 16.2010000   11.1400000   22.0560000  
C 16.8790000   11.4030000   20.9270000  
O 17.0670000   10.4510000   20.1260000  
O 19.2380000   17.7460000   18.0230000  
O 18.4700000   18.5960000   20.5090000  
H 16.8020000   13.9840000   22.5890000  
H 16.4260000   11.8410000   22.6320000  
H 18.1850000   12.6010000   18.6850000  
H 19.6140000   17.1090000   17.4230000  
H 18.4410000   19.2110000   19.7550000  
C 18.9580000   14.9010000   17.2260000  
C 18.2690000   15.2330000   16.0450000  
C 18.7230000   14.9210000   14.7850000  
C 19.8400000   14.0790000   14.6410000  
C 20.5890000   13.7360000   15.7840000  
C 20.1510000   14.1410000   17.0210000  
C 16.9590000   15.7990000   15.9400000  
C 16.6980000   15.8260000   14.5510000  
N 17.8180000   15.3820000   13.8440000  
O 14.4170000   16.5240000   14.7800000  
C 15.4110000   16.2370000   13.9140000  
O 15.2110000   16.3660000   12.7740000  
O 21.7040000   13.0160000   15.7090000  
O 20.9910000   13.9540000   18.0770000  
H 16.3580000   16.3040000   16.6770000  
H 14.7380000   16.4840000   15.7290000  
H 17.9300000   15.2550000   12.8360000  
H 22.0360000   13.0800000   16.5530000  
H 20.3660000   13.9420000   18.8690000  
H 20.1980000   13.8140000   13.6170000  
