78
110 
C 19.4160000    9.7130000   23.8260000  
C 19.8540000    8.9170000   22.7210000  
C 19.5720000    9.4730000   21.4840000  
C 19.0090000   10.7300000   21.3810000  
C 18.6590000   11.5500000   22.4430000  
C 18.8900000   11.0060000   23.7030000  
C 19.6960000    8.9620000   20.1530000  
C 19.3600000   10.0150000   19.3110000  
N 18.9390000   11.1520000   20.0590000  
O 20.1000000    8.7640000   17.3570000  
C 19.4030000    9.8700000   17.7840000  
O 18.8560000   10.5270000   16.9210000  
O 18.7420000   11.7820000   24.8070000  
O 19.7590000    9.2420000   25.0700000  
H 20.3580000    7.9170000   22.7990000  
H 20.0690000    7.8870000   19.9560000  
H 20.2300000    8.2650000   18.1800000  
H 18.7480000   12.1050000   19.7110000  
H 18.2630000   12.5620000   24.5270000  
H 20.0000000    9.9060000   25.7380000  
C 18.1990000   13.0220000   22.2380000  
C 16.9150000   13.4570000   22.6800000  
C 16.4930000   14.7540000   22.4600000  
C 17.2850000   15.7450000   21.8020000  
C 18.5950000   15.3960000   21.4980000  
C 19.0590000   14.0840000   21.6990000  
C 15.8000000   12.8280000   23.4100000  
C 14.8420000   13.8040000   23.6690000  
N 15.2950000   15.0250000   23.0840000  
O 13.3560000   12.1410000   24.6020000  
C 13.5000000   13.4860000   24.2810000  
O 12.6140000   14.2840000   24.4920000  
O 19.3630000   16.2510000   20.8390000  
O 20.2260000   13.6970000   21.1340000  
H 15.7190000   11.7560000   23.6460000  
H 14.0710000   11.6210000   24.2320000  
H 14.7530000   15.8710000   23.1730000  
H 18.7290000   16.8890000   20.4480000  
H 20.5700000   13.1140000   21.7900000  
C 16.7480000   17.1040000   21.5300000  
C 16.7380000   17.9800000   22.6240000  
C 16.3170000   19.3000000   22.4200000  
C 16.0160000   19.8660000   21.1600000  
C 15.9450000   18.9860000   20.0660000  
C 16.3020000   17.6190000   20.2640000  
C 17.3320000   17.9170000   23.9510000  
C 17.3970000   19.2400000   24.3740000  
N 16.5610000   20.0630000   23.5770000  
O 18.5290000   18.6840000   26.4190000  
C 17.9880000   19.6850000   25.6510000  
O 18.0490000   20.8860000   25.9970000  
O 15.5730000   19.4300000   18.8370000  
O 16.4150000   16.8020000   19.1930000  
H 17.8980000   17.0900000   24.4120000  
H 18.1080000   17.9130000   25.9900000  
H 16.5120000   21.0780000   23.7190000  
H 15.3670000   20.4060000   18.8020000  
H 16.6720000   15.8930000   19.4800000  
C 15.8210000   21.3550000   21.0320000  
C 16.9600000   22.1390000   21.0230000  
C 16.8640000   23.4830000   20.8120000  
C 15.6100000   24.1070000   20.6430000  
C 14.4270000   23.3340000   20.7500000  
C 14.5380000   21.9590000   20.8890000  
C 18.3280000   21.8060000   21.1220000  
C 19.0210000   23.0100000   21.0670000  
N 18.0980000   24.0240000   20.9470000  
O 21.1900000   22.1450000   21.6720000  
C 20.4440000   23.2170000   21.1830000  
O 20.9150000   24.2910000   20.8280000  
O 13.2010000   23.9240000   20.4790000  
O 13.3980000   21.2450000   20.9380000  
H 18.7880000   20.8210000   21.1680000  
H 20.5980000   21.3250000   21.6220000  
H 18.2840000   24.9690000   21.1360000  
H 12.5810000   23.2910000   20.9090000  
H 13.5910000   20.4600000   21.4520000  
H 15.5420000   25.1540000   20.5610000  
