78
110 
C 13.3290000   19.9880000   27.0860000  
C 12.2240000   20.6290000   26.4890000  
C 11.9540000   20.5270000   25.1140000  
C 12.9170000   19.8510000   24.3720000  
C 14.0550000   19.1590000   24.8300000  
C 14.2080000   19.2000000   26.2390000  
C 10.8980000   20.9930000   24.1850000  
C 11.4100000   20.7070000   22.9110000  
N 12.5650000   19.9200000   23.0170000  
O  9.5050000   21.6160000   21.6640000  
C 10.6620000   20.9130000   21.6220000  
O 11.1320000   20.5150000   20.5170000  
O 15.2010000   18.4360000   26.8260000  
O 13.4400000   20.0390000   28.4320000  
H 11.5720000   21.2520000   27.1000000  
H 10.1170000   21.7130000   24.4820000  
H  9.4600000   21.9820000   22.5300000  
H 13.1050000   19.5220000   22.2100000  
H 15.8030000   18.2810000   26.1290000  
H 14.1470000   19.4310000   28.5650000  
C 14.9740000   18.3230000   23.9330000  
C 15.9680000   18.9070000   23.1510000  
C 16.7380000   18.1610000   22.3370000  
C 16.6950000   16.7400000   22.2870000  
C 15.7290000   16.1440000   23.0580000  
C 14.8790000   16.9070000   23.9410000  
C 16.3570000   20.3060000   22.8950000  
C 17.4240000   20.2430000   21.9790000  
N 17.5790000   18.9020000   21.6090000  
O 17.6650000   22.6290000   21.6400000  
C 18.1260000   21.3950000   21.2860000  
O 18.9690000   21.1800000   20.3820000  
O 15.6220000   14.8210000   22.9770000  
O 14.0270000   16.2200000   24.7570000  
H 15.7910000   21.2180000   23.0770000  
H 17.0160000   22.3560000   22.3040000  
H 18.1760000   18.5720000   20.8630000  
H 15.9300000   14.3800000   22.1560000  
H 13.3960000   16.8620000   25.1240000  
C 17.6290000   15.9480000   21.4710000  
C 18.8310000   15.3700000   22.0320000  
C 19.7370000   14.8250000   21.2020000  
C 19.6950000   14.7150000   19.7830000  
C 18.4880000   15.2910000   19.2700000  
C 17.4710000   15.8180000   20.0750000  
C 19.2260000   15.1990000   23.3750000  
C 20.4300000   14.4900000   23.3280000  
N 20.7550000   14.2410000   21.9370000  
O 20.6660000   14.3700000   25.5960000  
C 21.2560000   14.0770000   24.4360000  
O 22.3680000   13.5380000   24.3490000  
O 18.3690000   15.2360000   17.9350000  
O 16.3390000   16.4030000   19.5750000  
H 18.6610000   15.5300000   24.2520000  
H 19.9130000   15.0670000   25.4140000  
H 21.6680000   13.8790000   21.5700000  
H 19.1150000   14.8610000   17.4420000  
H 15.7380000   16.6800000   20.2640000  
C 20.8110000   14.0890000   19.0150000  
C 21.0630000   12.6840000   19.1060000  
C 22.2130000   12.1580000   18.5880000  
C 23.2080000   12.8210000   17.8100000  
C 22.9030000   14.1980000   17.6530000  
C 21.7650000   14.8340000   18.2120000  
C 20.2490000   11.5840000   19.6650000  
C 20.9050000   10.4330000   19.2470000  
N 22.1870000   10.7950000   18.7070000  
O 19.1730000    8.8140000   19.7770000  
C 20.4070000    9.0140000   19.3620000  
O 21.0830000    8.0890000   19.0160000  
O 23.7040000   15.0890000   17.0410000  
O 21.6570000   16.1940000   17.9460000  
H 19.2670000   11.5770000   20.1550000  
H 18.7170000    9.6870000   19.6410000  
H 22.9810000   10.1510000   18.4450000  
H 23.2960000   15.9210000   17.2510000  
H 20.7860000   16.4590000   18.2060000  
H 24.0800000   12.3540000   17.3640000  
