78
110 
C 12.5170000   20.7290000   17.8510000  
C 11.2190000   20.2170000   17.9810000  
C 11.1090000   19.0840000   18.7740000  
C 12.1520000   18.4480000   19.3940000  
C 13.5040000   18.9040000   19.2390000  
C 13.6270000   20.0590000   18.4480000  
C 10.0080000   18.2050000   19.0420000  
C 10.4200000   17.1580000   19.8460000  
N 11.7930000   17.3020000   19.9690000  
O  8.2810000   16.1490000   20.1760000  
C  9.5990000   16.0320000   20.3600000  
O 10.1280000   15.1130000   20.9980000  
O 14.8690000   20.5490000   18.3490000  
O 12.7520000   21.8960000   17.1950000  
H 10.2950000   20.8090000   17.6480000  
H  9.0290000   18.3270000   18.6760000  
H  8.0610000   17.1060000   20.1170000  
H 12.4450000   16.6430000   20.4790000  
H 15.4160000   20.0480000   19.0120000  
H 13.7020000   22.1420000   17.1590000  
C 14.6550000   18.2750000   20.0080000  
C 15.7790000   17.6330000   19.4110000  
C 16.6880000   17.0400000   20.2110000  
C 16.7600000   17.0100000   21.5850000  
C 15.6310000   17.6390000   22.2150000  
C 14.5730000   18.2310000   21.4180000  
C 16.2490000   17.4370000   18.0650000  
C 17.3360000   16.5640000   18.1410000  
N 17.6060000   16.3070000   19.4820000  
O 17.6790000   16.4630000   15.8100000  
C 18.1610000   16.0070000   17.0180000  
O 19.0830000   15.1920000   17.1290000  
O 15.5250000   17.7390000   23.5910000  
O 13.5550000   18.7420000   22.1550000  
H 15.7100000   17.6310000   17.1350000  
H 16.8710000   16.9490000   16.0470000  
H 18.2320000   15.6880000   19.8160000  
H 16.1890000   17.1680000   24.0600000  
H 13.6920000   18.5340000   23.0740000  
C 17.8440000   16.2520000   22.3190000  
C 19.1930000   16.6820000   22.2420000  
C 20.1470000   16.1400000   22.9800000  
C 19.9390000   14.9910000   23.7130000  
C 18.6280000   14.4310000   23.7380000  
C 17.5490000   15.1180000   23.1310000  
C 19.7880000   17.8910000   21.6860000  
C 21.0870000   18.0200000   22.1220000  
N 21.3260000   16.8580000   22.8890000  
O 21.4710000   20.1070000   20.9540000  
C 21.9200000   19.1790000   21.8290000  
O 22.9880000   19.3400000   22.3980000  
O 18.4910000   13.3150000   24.4020000  
O 16.2820000   14.6750000   23.2350000  
H 19.2310000   18.5560000   21.0740000  
H 20.6270000   19.6990000   20.5910000  
H 22.1530000   16.7880000   23.4630000  
H 19.3050000   13.2190000   24.7870000  
H 16.2170000   14.0840000   23.9880000  
C 21.1710000   14.1150000   24.1090000  
C 21.3360000   13.7670000   25.4700000  
C 22.4290000   13.0780000   25.8800000  
C 23.4250000   12.6790000   24.9950000  
C 23.2890000   12.9550000   23.6590000  
C 22.1850000   13.7250000   23.1970000  
C 20.6580000   14.2100000   26.6950000  
C 21.4030000   13.7390000   27.7880000  
N 22.4550000   12.9420000   27.2170000  
O 20.4540000   15.0240000   29.5890000  
C 21.2510000   13.9830000   29.1580000  
O 21.8730000   13.3530000   29.9980000  
O 24.4090000   12.8070000   22.9130000  
O 22.1250000   14.0020000   21.8270000  
H 19.8080000   14.8850000   26.7520000  
H 19.9150000   15.4800000   28.8990000  
H 23.1030000   12.3650000   27.7620000  
H 24.2020000   13.0110000   22.0090000  
H 21.3170000   14.4150000   21.5750000  
H 24.4130000   12.1930000   25.3210000  
