78
110 
C 18.7220000   11.0720000   26.8050000  
C 19.4100000   10.0210000   26.1650000  
C 19.8060000   10.2090000   24.8280000  
C 19.5670000   11.3810000   24.1810000  
C 18.8600000   12.4760000   24.7530000  
C 18.4950000   12.3330000   26.1020000  
C 20.1850000    9.2730000   23.8670000  
C 20.2500000    9.9590000   22.6640000  
N 19.6680000   11.2170000   22.8040000  
O 20.6780000    8.1020000   21.3420000  
C 20.5610000    9.4090000   21.3360000  
O 20.4940000   10.0550000   20.2910000  
O 17.9310000   13.4600000   26.7130000  
O 18.4350000   10.9280000   28.1420000  
H 19.7120000    9.0850000   26.6740000  
H 20.3740000    8.2120000   24.0530000  
H 20.7490000    7.9250000   22.3320000  
H 19.3780000   11.8710000   22.0170000  
H 18.3640000   14.2630000   26.2930000  
H 18.3180000   11.7300000   28.5630000  
C 18.5680000   13.7050000   24.0060000  
C 17.1720000   13.9340000   23.7480000  
C 16.8660000   14.9120000   22.7790000  
C 17.8440000   15.7000000   22.1510000  
C 19.1670000   15.5340000   22.4590000  
C 19.5490000   14.5340000   23.3700000  
C 15.8940000   13.3490000   24.0710000  
C 14.9250000   13.9970000   23.2610000  
N 15.5690000   14.9740000   22.5080000  
O 13.2000000   12.6300000   23.9610000  
C 13.4870000   13.6380000   23.1420000  
O 12.7020000   14.1740000   22.3730000  
O 20.0570000   16.3880000   21.8390000  
O 20.8400000   14.3340000   23.6710000  
H 15.6110000   12.4170000   24.6440000  
H 14.0320000   12.4320000   24.4370000  
H 15.2530000   15.5130000   21.6920000  
H 19.5800000   17.1610000   21.5340000  
H 20.8020000   13.7210000   24.4300000  
C 17.4450000   16.7770000   21.2460000  
C 17.0180000   17.9830000   21.8270000  
C 16.6610000   19.0340000   21.1020000  
C 16.6770000   19.0530000   19.7000000  
C 17.2100000   17.8330000   19.0750000  
C 17.5040000   16.6710000   19.8590000  
C 16.7420000   18.3940000   23.2050000  
C 16.3190000   19.7580000   23.1710000  
N 16.3180000   20.1700000   21.8580000  
O 15.9220000   19.9240000   25.5510000  
C 15.9360000   20.6000000   24.4170000  
O 15.6150000   21.7870000   24.3970000  
O 17.4230000   17.8090000   17.7250000  
O 18.0770000   15.5540000   19.2550000  
H 16.8560000   17.7400000   24.1510000  
H 16.3900000   19.0880000   25.3550000  
H 15.8630000   20.9440000   21.4140000  
H 16.7410000   18.4250000   17.3170000  
H 18.5250000   15.0950000   19.9430000  
C 16.1870000   20.2150000   18.9030000  
C 16.8140000   21.4660000   18.9870000  
C 16.4780000   22.3930000   18.0650000  
C 15.4660000   22.2390000   17.1030000  
C 14.7290000   21.0610000   17.0810000  
C 15.0860000   20.0440000   17.9740000  
C 17.8880000   22.0410000   19.7870000  
C 18.0900000   23.3410000   19.2700000  
N 17.2330000   23.5210000   18.2030000  
O 19.5980000   24.1610000   20.8070000  
C 18.9810000   24.4350000   19.6580000  
O 19.0640000   25.4570000   18.9950000  
O 13.6420000   20.9280000   16.2430000  
O 14.3460000   18.8540000   17.8690000  
H 18.3610000   21.5990000   20.6840000  
H 19.3430000   23.2680000   21.1630000  
H 17.0840000   24.3460000   17.6510000  
H 13.2900000   19.9910000   16.4360000  
H 14.5680000   18.3850000   18.7030000  
H 15.2610000   23.0320000   16.3740000  
