78
110 
C 15.3150000   15.1950000   28.6320000  
C 16.3500000   14.8800000   29.5640000  
C 17.6620000   14.8860000   29.1650000  
C 17.9550000   15.2310000   27.8960000  
C 17.0280000   15.6710000   26.8820000  
C 15.7040000   15.6650000   27.3120000  
C 18.9200000   14.8570000   29.8400000  
C 19.9710000   15.0580000   28.9320000  
N 19.3580000   15.3300000   27.6850000  
O 21.6640000   14.7950000   30.5770000  
C 21.4420000   14.9530000   29.2090000  
O 22.3290000   14.9780000   28.3890000  
O 14.6890000   15.9520000   26.4100000  
O 13.9860000   15.1640000   28.9160000  
H 16.0950000   14.6930000   30.5930000  
H 18.9850000   14.5900000   30.8880000  
H 20.7800000   14.7540000   30.8910000  
H 19.8120000   15.6380000   26.8550000  
H 14.8650000   16.5640000   25.7110000  
H 13.5970000   15.3790000   28.0720000  
C 17.4260000   16.1090000   25.4700000  
C 18.0680000   15.2070000   24.5650000  
C 18.2290000   15.5790000   23.2660000  
C 17.8300000   16.8300000   22.7260000  
C 17.1340000   17.6860000   23.6170000  
C 17.0190000   17.4050000   24.9860000  
C 18.5410000   13.8290000   24.6710000  
C 18.9300000   13.4910000   23.3100000  
N 18.7960000   14.6070000   22.4550000  
O 19.6600000   11.3400000   24.0110000  
C 19.4720000   12.1890000   22.9300000  
O 19.7080000   11.7910000   21.8170000  
O 16.7090000   18.8700000   23.0220000  
O 16.4530000   18.3960000   25.7640000  
H 18.5620000   13.1910000   25.5720000  
H 19.2910000   11.7720000   24.7900000  
H 18.7000000   14.6320000   21.4560000  
H 17.3700000   19.1510000   22.4050000  
H 16.3850000   19.1160000   25.0990000  
C 17.9500000   17.1720000   21.2620000  
C 17.0560000   16.6130000   20.3430000  
C 17.1050000   16.9900000   19.0390000  
C 18.0500000   17.8670000   18.4450000  
C 18.9270000   18.4900000   19.4010000  
C 18.9130000   18.1550000   20.7850000  
C 15.9210000   15.6940000   20.5090000  
C 15.4790000   15.5080000   19.1900000  
N 16.2050000   16.2390000   18.3140000  
O 13.8320000   13.9150000   19.7520000  
C 14.4520000   14.5970000   18.7700000  
O 14.0950000   14.4000000   17.5960000  
O 19.7510000   19.5150000   18.9820000  
O 19.8420000   18.7190000   21.5950000  
H 15.6440000   15.1550000   21.4360000  
H 14.2020000   14.0900000   20.6240000  
H 16.1830000   16.1490000   17.2900000  
H 19.3460000   20.1170000   18.3870000  
H 20.5740000   19.1010000   21.0240000  
C 18.0180000   18.1330000   16.9850000  
C 16.8370000   18.6380000   16.3970000  
C 16.7940000   18.9010000   15.0140000  
C 17.7950000   18.6370000   14.1410000  
C 18.9760000   18.1280000   14.7090000  
C 19.1750000   17.8650000   16.1210000  
C 15.5030000   19.0600000   16.9090000  
C 14.8030000   19.5310000   15.8600000  
N 15.5960000   19.3950000   14.6950000  
O 12.8150000   19.8930000   16.9950000  
C 13.4680000   19.9600000   15.8630000  
O 12.8510000   20.2930000   14.8310000  
O 20.1470000   17.9920000   13.9510000  
O 20.3220000   17.2660000   16.5740000  
H 15.2240000   19.1200000   17.9790000  
H 13.4370000   19.5130000   17.6140000  
H 15.2480000   19.5580000   13.7700000  
H 20.7250000   17.6040000   14.6740000  
H 20.1830000   17.1710000   17.5000000  
H 17.7730000   18.9780000   13.1170000  
