78
110 
C 13.6600000   17.6700000   15.6770000  
C 12.3910000   17.1330000   15.7490000  
C 12.0460000   16.3510000   16.8540000  
C 12.9460000   16.1100000   17.7870000  
C 14.2080000   16.7240000   17.8540000  
C 14.5370000   17.5480000   16.7270000  
C 10.8150000   15.8040000   17.3120000  
C 11.0810000   15.0920000   18.5290000  
N 12.4190000   15.3980000   18.8630000  
O  8.8970000   14.1410000   18.7210000  
C 10.1100000   14.2300000   19.2830000  
O 10.3280000   13.6390000   20.3570000  
O 15.6570000   18.3540000   16.7640000  
O 13.9240000   18.3740000   14.5460000  
H 11.7280000   17.2430000   14.9230000  
H  9.9300000   15.7210000   16.6530000  
H  8.8310000   14.7440000   17.9950000  
H 12.8380000   15.2070000   19.7970000  
H 16.3440000   17.9140000   17.3230000  
H 14.5800000   19.0690000   14.7910000  
C 15.0950000   16.6610000   19.0920000  
C 16.2260000   15.8470000   19.0640000  
C 16.9400000   15.5950000   20.2200000  
C 16.6600000   16.1710000   21.5030000  
C 15.4880000   16.9230000   21.5070000  
C 14.6910000   17.1220000   20.3680000  
C 16.8740000   15.1920000   18.0070000  
C 17.9720000   14.5210000   18.4980000  
N 17.9790000   14.7670000   19.9050000  
O 18.8940000   13.9540000   16.4080000  
C 19.0270000   13.8700000   17.7350000  
O 19.9860000   13.3280000   18.3320000  
O 15.1390000   17.6030000   22.6790000  
O 13.5690000   17.8860000   20.5220000  
H 16.5990000   15.2630000   16.9860000  
H 18.0490000   14.5180000   16.2330000  
H 18.7740000   14.5500000   20.4850000  
H 15.8970000   17.5860000   23.2600000  
H 13.5480000   18.0920000   21.4870000  
C 17.5600000   16.0440000   22.7250000  
C 18.8990000   16.5360000   22.6380000  
C 19.6420000   16.5620000   23.7990000  
C 19.2940000   16.0560000   25.0570000  
C 17.9610000   15.5940000   25.1330000  
C 17.1290000   15.5220000   23.9290000  
C 19.7830000   17.0240000   21.5230000  
C 21.0400000   17.1650000   22.1420000  
N 20.8890000   17.0900000   23.5130000  
O 22.2470000   17.6560000   20.1450000  
C 22.3120000   17.6520000   21.5570000  
O 23.2380000   18.1780000   22.1860000  
O 17.5160000   15.0330000   26.2980000  
O 15.8860000   15.0310000   23.8830000  
H 19.5780000   17.0890000   20.4680000  
H 21.3970000   17.2280000   19.9870000  
H 21.5830000   17.3850000   24.1930000  
H 18.1760000   14.9390000   26.9820000  
H 15.1750000   15.6870000   23.5770000  
C 20.1460000   16.1990000   26.2490000  
C 20.5620000   17.4000000   26.7820000  
C 21.3640000   17.4400000   27.8920000  
C 21.7210000   16.2720000   28.6240000  
C 21.4120000   15.0250000   27.9840000  
C 20.6380000   15.0210000   26.7950000  
C 20.4520000   18.6880000   26.2350000  
C 21.2500000   19.5020000   27.0480000  
N 21.9190000   18.6970000   28.0530000  
O 20.6520000   21.5600000   25.9420000  
C 21.2520000   20.9760000   26.9740000  
O 21.7750000   21.6730000   27.8400000  
O 21.9850000   13.9000000   28.4780000  
O 20.3240000   13.7950000   26.1800000  
H 19.8190000   19.0390000   25.3740000  
H 20.3110000   20.7750000   25.5250000  
H 22.5410000   18.9740000   28.8440000  
H 21.7690000   13.1420000   27.9120000  
H 19.5020000   14.0030000   25.6240000  
H 22.3430000   16.4150000   29.5250000  
