78
110 
C 18.0360000   10.8830000   17.1990000  
C 16.8190000   10.5010000   16.6580000  
C 15.6440000   11.1800000   17.0690000  
C 15.6780000   12.1930000   17.9450000  
C 16.9040000   12.7010000   18.4780000  
C 18.0810000   12.0070000   18.0660000  
C 14.2640000   10.9000000   16.8300000  
C 13.5800000   11.6810000   17.7180000  
N 14.4440000   12.5900000   18.3140000  
O 11.6420000   10.5510000   17.2740000  
C 12.1660000   11.5700000   17.9760000  
O 11.4710000   12.1910000   18.7400000  
O 19.2990000   12.4110000   18.5050000  
O 19.2160000   10.2410000   16.8200000  
H 16.8130000    9.7250000   15.9220000  
H 13.9510000   10.2860000   16.0160000  
H 12.4140000   10.1280000   16.9250000  
H 14.2710000   13.2900000   19.0680000  
H 19.2640000   13.2980000   18.9350000  
H 20.0040000   10.8080000   17.0940000  
C 16.9750000   13.7830000   19.4200000  
C 16.9470000   13.6080000   20.8630000  
C 16.9890000   14.6850000   21.7390000  
C 16.9540000   16.0220000   21.2770000  
C 16.8050000   16.2190000   19.8780000  
C 16.8280000   15.1380000   19.0070000  
C 16.9440000   12.4560000   21.6490000  
C 17.0670000   12.8330000   22.9720000  
N 17.0820000   14.2570000   23.0050000  
O 17.2700000   10.6790000   23.8870000  
C 17.2630000   11.9990000   24.1290000  
O 17.4080000   12.4530000   25.2700000  
O 16.4350000   17.5260000   19.4890000  
O 16.6210000   15.4500000   17.6860000  
H 16.8930000   11.4280000   21.2690000  
H 17.3790000   10.5920000   22.8930000  
H 17.0580000   14.7900000   23.9040000  
H 16.7700000   18.1190000   20.2250000  
H 16.6930000   16.3720000   17.6960000  
C 17.0140000   17.2330000   22.2170000  
C 18.2490000   17.5370000   22.7990000  
C 18.3700000   18.6110000   23.6780000  
C 17.2950000   19.4740000   24.0240000  
C 16.0560000   19.1090000   23.4940000  
C 15.9410000   18.0180000   22.5980000  
C 19.5710000   17.0090000   22.6260000  
C 20.4500000   17.7250000   23.3880000  
N 19.6700000   18.6770000   24.1550000  
O 22.5250000   16.7260000   22.7870000  
C 21.9390000   17.6800000   23.5430000  
O 22.5860000   18.4900000   24.2040000  
O 15.0230000   19.9150000   23.7350000  
O 14.7260000   17.6530000   22.0610000  
H 19.8870000   16.2090000   21.9030000  
H 21.8480000   16.4220000   22.1670000  
H 20.1540000   19.3770000   24.7380000  
H 15.3450000   20.7580000   24.1950000  
H 14.8230000   16.7340000   21.6950000  
C 17.5680000   20.6070000   25.0100000  
C 18.4800000   21.6250000   24.7190000  
C 18.8390000   22.6040000   25.5930000  
C 18.3740000   22.5660000   26.9060000  
C 17.4810000   21.5490000   27.3430000  
C 17.0310000   20.6130000   26.3500000  
C 19.1610000   21.8640000   23.4720000  
C 19.8940000   23.0110000   23.7520000  
N 19.7780000   23.4100000   25.0940000  
O 20.8100000   23.0010000   21.7030000  
C 20.7110000   23.7140000   22.8050000  
O 21.2430000   24.8230000   22.9170000  
O 16.9500000   21.7660000   28.5720000  
O 16.0680000   19.6960000   26.7250000  
H 18.8980000   21.3540000   22.5860000  
H 20.3700000   22.1200000   21.8300000  
H 20.3390000   24.0560000   25.5680000  
H 16.3160000   21.0340000   28.8440000  
H 15.7210000   19.1460000   26.0980000  
H 18.6600000   23.4150000   27.5950000  
