78
110 
C 14.1810000   17.2980000   28.5160000  
C 14.2060000   18.6540000   28.9640000  
C 14.7760000   19.6140000   28.0420000  
C 15.2360000   19.2430000   26.8190000  
C 15.1290000   17.9060000   26.3010000  
C 14.5460000   16.9660000   27.1830000  
C 14.9110000   21.0200000   28.1670000  
C 15.4340000   21.4220000   26.9430000  
N 15.6730000   20.2630000   26.1170000  
O 15.0970000   23.6390000   27.5890000  
C 15.6160000   22.8320000   26.5870000  
O 16.1140000   23.2650000   25.5590000  
O 14.4050000   15.6710000   26.7000000  
O 13.6010000   16.3300000   29.2670000  
H 13.7350000   18.9550000   29.9180000  
H 14.6890000   21.7100000   28.9830000  
H 14.4620000   23.1620000   28.0790000  
H 16.1520000   20.2890000   25.2610000  
H 14.2490000   15.7410000   25.7160000  
H 13.7960000   15.4820000   28.8250000  
C 15.6350000   17.5230000   24.9970000  
C 17.0520000   17.3920000   24.8090000  
C 17.5920000   17.0670000   23.5690000  
C 16.8330000   16.6880000   22.4450000  
C 15.4250000   16.7710000   22.6300000  
C 14.8490000   17.2250000   23.8350000  
C 18.1680000   17.6760000   25.6990000  
C 19.3030000   17.6520000   24.9840000  
N 18.9740000   17.1520000   23.7090000  
O 20.6790000   18.1510000   26.7400000  
C 20.6400000   18.0060000   25.4210000  
O 21.6500000   18.1100000   24.7380000  
O 14.5910000   16.4910000   21.5750000  
O 13.5040000   17.4310000   23.8790000  
H 18.1050000   18.1140000   26.6230000  
H 19.8590000   18.2580000   27.0360000  
H 19.6040000   16.7790000   22.9990000  
H 15.1260000   16.6990000   20.7690000  
H 13.1460000   17.6130000   22.9900000  
C 17.4520000   16.3580000   21.0910000  
C 18.3090000   15.2620000   20.9160000  
C 18.9350000   15.0240000   19.7050000  
C 18.5240000   15.6350000   18.5030000  
C 17.8330000   16.8800000   18.6810000  
C 17.3140000   17.2230000   19.9280000  
C 18.7890000   14.1970000   21.8060000  
C 19.5860000   13.3630000   20.9850000  
N 19.5980000   13.8150000   19.6210000  
O 20.3020000   12.1400000   22.8700000  
C 20.2910000   12.2060000   21.5050000  
O 20.9070000   11.3900000   20.8150000  
O 17.6340000   17.6600000   17.6460000  
O 16.4530000   18.3180000   20.0630000  
H 18.4120000   13.9630000   22.7910000  
H 19.8270000   12.9620000   23.1140000  
H 20.0110000   13.3640000   18.8570000  
H 17.8830000   17.2020000   16.8360000  
H 16.4740000   18.7220000   19.1260000  
C 19.1830000   15.1400000   17.2470000  
C 18.4980000   14.3420000   16.3180000  
C 19.0310000   13.9670000   15.1010000  
C 20.3800000   14.3010000   14.7730000  
C 21.0800000   15.1410000   15.6820000  
C 20.5000000   15.5150000   16.9370000  
C 17.1400000   13.7530000   16.2940000  
C 16.9780000   13.0700000   15.0770000  
N 18.1210000   13.1960000   14.3310000  
O 15.0550000   12.0420000   15.7920000  
C 15.8340000   12.2890000   14.7140000  
O 15.5520000   11.7900000   13.6790000  
O 22.3610000   15.5210000   15.2840000  
O 21.2950000   16.4140000   17.7550000  
H 16.3770000   13.9900000   17.0080000  
H 15.4580000   12.6340000   16.4620000  
H 18.1570000   12.9790000   13.3860000  
H 22.7500000   16.2740000   15.7900000  
H 20.8950000   16.4540000   18.7010000  
H 20.8530000   13.8880000   13.8850000  
