78
110 
C 16.5800000   13.3680000   28.4190000  
C 17.7210000   12.6370000   28.8360000  
C 18.9540000   12.7880000   28.2230000  
C 19.0380000   13.7020000   27.2120000  
C 17.9340000   14.3170000   26.5840000  
C 16.6550000   14.1380000   27.2540000  
C 20.2150000   12.2070000   28.3930000  
C 21.0360000   12.8420000   27.4310000  
N 20.2190000   13.6070000   26.6180000  
O 23.0490000   11.8850000   28.1900000  
C 22.4530000   12.6270000   27.2960000  
O 23.0630000   13.1800000   26.4000000  
O 15.5580000   14.7360000   26.6940000  
O 15.3810000   13.3320000   29.0900000  
H 17.6550000   11.8810000   29.6500000  
H 20.5380000   11.4560000   29.1130000  
H 22.3650000   11.9420000   28.9280000  
H 20.4920000   14.0360000   25.7450000  
H 15.7150000   15.0040000   25.7460000  
H 14.7860000   13.9300000   28.6160000  
C 17.9850000   15.0440000   25.2620000  
C 17.7270000   14.2720000   24.0590000  
C 17.7440000   14.9560000   22.8710000  
C 18.0680000   16.3360000   22.6470000  
C 18.3520000   17.0370000   23.8510000  
C 18.2720000   16.4070000   25.1040000  
C 17.2230000   12.8970000   23.8380000  
C 16.9860000   12.8010000   22.4690000  
N 17.3130000   14.0500000   21.8740000  
O 16.5610000   10.4940000   22.3010000  
C 16.5380000   11.7120000   21.6560000  
O 16.2960000   11.7830000   20.4700000  
O 18.8240000   18.3140000   23.8570000  
O 18.4930000   17.0890000   26.2010000  
H 17.0650000   12.1370000   24.6090000  
H 16.7820000   10.6210000   23.2140000  
H 17.2350000   14.1890000   20.8440000  
H 19.2410000   18.4830000   23.0600000  
H 18.4930000   18.0380000   25.9470000  
C 18.0520000   17.0420000   21.3130000  
C 16.7880000   17.1760000   20.6150000  
C 16.6970000   17.9130000   19.4320000  
C 17.7710000   18.5550000   18.8050000  
C 19.0000000   18.4100000   19.4970000  
C 19.0990000   17.7650000   20.7920000  
C 15.3890000   16.7310000   20.9700000  
C 14.5930000   17.2560000   19.9260000  
N 15.3830000   18.0370000   19.0560000  
O 12.6130000   16.0930000   20.6340000  
C 13.1860000   16.9740000   19.7270000  
O 12.4120000   17.5510000   18.9450000  
O 20.2110000   18.8530000   18.9750000  
O 20.3270000   17.7970000   21.3910000  
H 15.0470000   16.0820000   21.8130000  
H 13.3920000   15.6940000   21.0680000  
H 15.0390000   18.4700000   18.1820000  
H 19.9990000   19.2810000   18.1090000  
H 20.9570000   18.2460000   20.7530000  
C 17.6420000   19.1360000   17.4060000  
C 16.7580000   20.2230000   17.2000000  
C 16.5700000   20.7070000   15.9320000  
C 17.2580000   20.2440000   14.8460000  
C 18.2100000   19.1990000   14.9710000  
C 18.3010000   18.6180000   16.2810000  
C 15.9890000   21.0170000   18.0980000  
C 15.1850000   21.8870000   17.2940000  
N 15.6360000   21.7360000   15.9500000  
O 13.9350000   22.9610000   19.0250000  
C 14.2060000   22.9680000   17.6770000  
O 13.7010000   23.7260000   16.8560000  
O 18.8550000   18.7370000   13.9230000  
O 19.1790000   17.5570000   16.4040000  
H 15.7620000   20.6470000   19.0880000  
H 14.3120000   22.2160000   19.4020000  
H 15.1300000   22.1380000   15.1470000  
H 19.3270000   17.9640000   14.2510000  
H 19.0330000   17.0460000   17.2310000  
H 17.0820000   20.7100000   13.8850000  
