78
110 
C 17.1670000   10.7270000   17.0680000  
C 15.8220000   10.5680000   16.6700000  
C 14.9030000   11.4390000   17.1750000  
C 15.2210000   12.5220000   17.9550000  
C 16.5570000   12.7630000   18.4190000  
C 17.5120000   11.7800000   17.9560000  
C 13.4860000   11.4940000   17.0650000  
C 13.1080000   12.6480000   17.7660000  
N 14.1970000   13.2880000   18.4280000  
O 10.9780000   12.3720000   16.9660000  
C 11.7160000   13.1020000   17.7930000  
O 11.2410000   14.0570000   18.4450000  
O 18.8580000   12.0420000   18.1870000  
O 18.0080000    9.6580000   16.7160000  
H 15.4590000    9.6720000   16.1130000  
H 12.9200000   10.8940000   16.3490000  
H 11.6310000   11.7500000   16.5130000  
H 14.1930000   13.9540000   19.2030000  
H 18.8460000   12.8350000   18.7510000  
H 18.8700000    9.7770000   17.0120000  
C 16.9060000   13.8690000   19.2800000  
C 17.2250000   13.6580000   20.6170000  
C 17.3840000   14.7160000   21.4400000  
C 17.4220000   16.0590000   21.0270000  
C 17.2420000   16.2720000   19.6140000  
C 17.0050000   15.1930000   18.7860000  
C 17.3580000   12.4540000   21.3830000  
C 17.4690000   12.9020000   22.6770000  
N 17.5010000   14.2940000   22.7060000  
O 17.7510000   10.7270000   23.4340000  
C 17.6110000   11.9950000   23.8480000  
O 17.5280000   12.2650000   25.0300000  
O 17.1570000   17.5820000   19.1600000  
O 16.8930000   15.4360000   17.4640000  
H 17.4300000   11.4470000   21.0010000  
H 17.6510000   10.6020000   22.4860000  
H 17.4030000   14.8360000   23.5530000  
H 17.2110000   18.1850000   19.9910000  
H 16.3800000   14.7010000   17.0750000  
C 17.4060000   17.1580000   21.9680000  
C 18.4970000   17.3490000   22.8110000  
C 18.4380000   18.3150000   23.7940000  
C 17.4520000   19.2710000   23.9470000  
C 16.3980000   19.1480000   23.0460000  
C 16.3390000   18.0760000   22.0660000  
C 19.7550000   16.6780000   22.9670000  
C 20.4460000   17.2610000   24.0160000  
N 19.6430000   18.2590000   24.5160000  
O 22.3410000   15.7310000   23.8100000  
C 21.6920000   16.6170000   24.5940000  
O 22.1150000   17.0210000   25.6400000  
O 15.4020000   20.0920000   23.0650000  
O 15.2800000   18.1610000   21.1450000  
H 20.1200000   15.8120000   22.4150000  
H 21.8840000   15.8310000   22.9520000  
H 19.9390000   18.9430000   25.2050000  
H 15.5880000   20.8220000   23.6450000  
H 15.3340000   17.3950000   20.5340000  
C 17.5520000   20.4570000   24.8980000  
C 18.7520000   21.2650000   24.9400000  
C 18.8270000   22.3690000   25.7810000  
C 17.7780000   22.7330000   26.6750000  
C 16.6180000   21.9120000   26.7540000  
C 16.5180000   20.7690000   25.8830000  
C 19.9140000   21.3740000   24.0880000  
C 20.6580000   22.4760000   24.5310000  
N 19.9180000   23.1480000   25.4790000  
O 22.5130000   22.3430000   22.9720000  
C 21.9010000   23.0910000   23.9560000  
O 22.2810000   24.2080000   24.2780000  
O 15.6010000   22.2580000   27.6120000  
O 15.4980000   19.9440000   26.0600000  
H 20.1920000   20.7630000   23.2910000  
H 21.8850000   21.6080000   22.8280000  
H 20.1780000   24.0680000   25.9340000  
H 14.8580000   21.6240000   27.5760000  
H 15.3650000   19.3710000   25.2140000  
H 17.8960000   23.6640000   27.1680000  
