78
110 
C 17.3880000    9.1780000   21.0730000  
C 17.5080000    8.9130000   19.6640000  
C 17.5780000   10.0110000   18.7570000  
C 17.4620000   11.2500000   19.2600000  
C 17.3840000   11.6150000   20.6390000  
C 17.3820000   10.5390000   21.5490000  
C 17.6930000   10.0410000   17.3650000  
C 17.4980000   11.3460000   17.0550000  
N 17.4120000   12.1280000   18.2450000  
O 17.9320000   10.9100000   14.7320000  
C 17.7260000   11.9000000   15.6450000  
O 17.8440000   13.1230000   15.4700000  
O 17.3130000   10.7490000   22.8470000  
O 17.4550000    8.0950000   21.8790000  
H 17.6560000    7.9480000   19.2610000  
H 17.7100000    9.1200000   16.7760000  
H 17.7970000   10.1270000   15.2620000  
H 17.4870000   13.1430000   18.3240000  
H 17.3070000   11.6990000   22.9370000  
H 17.6840000    8.5450000   22.7390000  
C 17.2790000   13.0440000   21.0570000  
C 15.9660000   13.5500000   21.3180000  
C 15.8890000   14.8970000   21.7420000  
C 16.9390000   15.7930000   21.8270000  
C 18.2170000   15.2790000   21.5790000  
C 18.3970000   13.9000000   21.3120000  
C 14.5690000   13.0770000   21.3210000  
C 13.7500000   14.1540000   21.6230000  
N 14.5750000   15.2380000   21.9180000  
O 11.7890000   12.9470000   21.5050000  
C 12.2920000   14.1860000   21.6560000  
O 11.6210000   15.1820000   21.9140000  
O 19.3420000   16.1090000   21.8380000  
O 19.6920000   13.5210000   21.0440000  
H 14.2610000   12.1040000   21.0860000  
H 12.4960000   12.3710000   21.3240000  
H 14.2760000   16.1470000   22.1570000  
H 18.9100000   16.9390000   21.9760000  
H 20.2570000   14.2830000   21.0250000  
C 16.7400000   17.1370000   22.3460000  
C 17.4300000   17.5380000   23.4840000  
C 17.5150000   18.8790000   23.8830000  
C 16.8940000   19.9590000   23.1520000  
C 16.2340000   19.5350000   21.9220000  
C 16.1120000   18.1950000   21.5750000  
C 18.1760000   16.8230000   24.4900000  
C 18.8630000   17.7750000   25.2540000  
N 18.3630000   19.0730000   24.9420000  
O 19.8210000   16.3690000   26.9170000  
C 19.5980000   17.6110000   26.5400000  
O 19.8870000   18.5970000   27.1850000  
O 15.6970000   20.5010000   21.0680000  
O 15.6750000   17.9090000   20.3070000  
H 18.0970000   15.7670000   24.6700000  
H 19.4780000   15.7330000   26.2490000  
H 18.5960000   19.9500000   25.3880000  
H 16.1160000   21.2880000   21.4030000  
H 15.2640000   18.7590000   20.0110000  
C 17.2200000   21.3900000   23.5130000  
C 18.4120000   21.9750000   23.0740000  
C 18.8570000   23.2120000   23.4750000  
C 18.0670000   23.9930000   24.3610000  
C 16.9290000   23.4650000   24.9060000  
C 16.4910000   22.1770000   24.4740000  
C 19.5000000   21.3830000   22.3490000  
C 20.4740000   22.3920000   22.2170000  
N 20.0820000   23.5570000   22.9560000  
O 21.8970000   21.2660000   20.6250000  
C 21.6410000   22.4260000   21.3310000  
O 22.4720000   23.2940000   21.4020000  
O 16.2480000   24.1670000   25.7740000  
O 15.3260000   21.7080000   25.0590000  
H 19.4250000   20.4340000   21.8500000  
H 21.3020000   20.5970000   21.0510000  
H 20.4920000   24.5060000   23.0520000  
H 15.4460000   23.6910000   26.0950000  
H 15.0390000   20.8970000   24.5850000  
H 18.4450000   24.9310000   24.7630000  
