78
110 
C 15.0580000   15.6090000   28.9640000  
C 16.1330000   15.7770000   29.8600000  
C 17.4140000   16.0880000   29.2430000  
C 17.5690000   16.3480000   27.9330000  
C 16.5090000   16.1890000   26.9940000  
C 15.2620000   15.8360000   27.5590000  
C 18.7320000   16.4090000   29.8040000  
C 19.5090000   16.8410000   28.7500000  
N 18.7870000   16.8230000   27.5830000  
O 21.5160000   17.1530000   30.0200000  
C 20.9860000   17.1370000   28.7790000  
O 21.6600000   17.3900000   27.7960000  
O 14.1710000   15.6450000   26.7340000  
O 13.8940000   15.0330000   29.3180000  
H 15.9830000   15.4620000   30.8770000  
H 19.1280000   16.0690000   30.7590000  
H 20.8490000   17.0090000   30.7090000  
H 19.0390000   17.1130000   26.6880000  
H 14.4230000   15.9600000   25.8440000  
H 13.4630000   14.7290000   28.4950000  
C 16.6660000   16.4280000   25.4980000  
C 17.6210000   15.7130000   24.8150000  
C 17.9080000   15.8560000   23.4870000  
C 17.1730000   16.7430000   22.7020000  
C 16.3250000   17.6690000   23.3920000  
C 15.9850000   17.4680000   24.7600000  
C 18.4220000   14.5340000   25.1820000  
C 19.0380000   14.0660000   24.0170000  
N 18.8070000   14.9450000   22.9800000  
O 20.2610000   12.3180000   25.0220000  
C 19.9030000   12.8660000   23.9350000  
O 20.1670000   12.3190000   22.8970000  
O 15.6220000   18.5880000   22.6030000  
O 14.9600000   18.2210000   25.2600000  
H 18.5350000   14.0980000   26.1550000  
H 19.9050000   13.0150000   25.7040000  
H 18.9930000   14.8350000   22.0210000  
H 15.8380000   18.3840000   21.6400000  
H 14.5800000   18.8950000   24.5910000  
C 17.4730000   16.9890000   21.2320000  
C 17.2150000   15.8860000   20.3220000  
C 17.2950000   16.0860000   18.9720000  
C 17.7480000   17.2870000   18.3880000  
C 17.9370000   18.4180000   19.2820000  
C 17.8550000   18.2560000   20.6700000  
C 16.8110000   14.4970000   20.5300000  
C 16.7310000   13.9270000   19.2770000  
N 16.9850000   14.9510000   18.2780000  
O 15.9730000   11.8110000   20.1100000  
C 16.2970000   12.5190000   19.0310000  
O 16.2900000   12.1460000   17.9090000  
O 18.4050000   19.6750000   18.7750000  
O 18.3850000   19.2360000   21.4990000  
H 16.5620000   13.9450000   21.4330000  
H 15.9420000   12.4520000   20.8310000  
H 17.0170000   14.8590000   17.2630000  
H 18.3690000   19.6910000   17.8570000  
H 18.6850000   20.0130000   20.9650000  
C 17.9680000   17.3860000   16.9650000  
C 17.0810000   17.9300000   16.0980000  
C 17.3900000   18.2250000   14.7500000  
C 18.5960000   17.8670000   14.0980000  
C 19.5540000   17.3400000   14.9810000  
C 19.2980000   17.1060000   16.3940000  
C 15.7800000   18.5790000   16.3870000  
C 15.3410000   19.0550000   15.1640000  
N 16.3240000   18.9160000   14.1610000  
O 13.1380000   20.0030000   15.8300000  
C 14.0090000   19.7350000   14.8000000  
O 13.7730000   20.0820000   13.6520000  
O 20.8510000   17.1370000   14.4970000  
O 20.2100000   16.5380000   17.2150000  
H 15.3310000   18.5680000   17.3840000  
H 13.7200000   19.8270000   16.6120000  
H 16.1890000   19.0130000   13.1230000  
H 21.1380000   16.2800000   14.8890000  
H 19.9990000   16.6550000   18.0990000  
H 18.7750000   18.0220000   13.0290000  
