78
110 
C 12.5850000   19.5260000   17.2220000  
C 11.4060000   18.7590000   17.1540000  
C 11.2770000   17.7760000   18.1440000  
C 12.2860000   17.5040000   19.0110000  
C 13.5570000   18.1570000   19.0130000  
C 13.6430000   19.2240000   18.1170000  
C 10.2700000   16.8150000   18.3920000  
C 10.6670000   16.0700000   19.4990000  
N 12.0070000   16.4650000   19.8330000  
O  8.6570000   14.8340000   19.7620000  
C  9.9710000   14.9280000   20.1310000  
O 10.4770000   14.1120000   20.9030000  
O 14.8000000   20.0020000   18.0840000  
O 12.7290000   20.5430000   16.3670000  
H 10.5750000   18.9000000   16.4680000  
H  9.4060000   16.6050000   17.7770000  
H  8.5670000   15.6480000   19.2940000  
H 12.5970000   15.9530000   20.4840000  
H 15.3890000   19.8260000   18.8040000  
H 13.5310000   20.9310000   16.7820000  
C 14.5920000   17.7410000   19.9620000  
C 15.6600000   16.8720000   19.6050000  
C 16.5830000   16.4830000   20.4050000  
C 16.6750000   16.8420000   21.8040000  
C 15.6390000   17.7680000   22.2400000  
C 14.6400000   18.1860000   21.3420000  
C 15.8050000   16.0280000   18.3860000  
C 16.9580000   15.2820000   18.5560000  
N 17.3620000   15.4530000   19.8750000  
O 16.7040000   13.9850000   16.4990000  
C 17.4100000   14.1800000   17.6690000  
O 18.4220000   13.5040000   17.8530000  
O 15.6060000   18.1730000   23.5960000  
O 13.7100000   19.0150000   21.7760000  
H 15.1170000   15.9570000   17.5880000  
H 15.9290000   14.6240000   16.5190000  
H 18.1570000   14.9750000   20.3050000  
H 16.3180000   17.7590000   24.1170000  
H 13.0770000   19.2410000   21.0950000  
C 17.7250000   16.3320000   22.6420000  
C 19.0480000   16.4800000   22.2120000  
C 20.1440000   16.0780000   22.9240000  
C 19.9380000   15.2780000   24.0520000  
C 18.6450000   14.9900000   24.5240000  
C 17.5230000   15.5800000   23.8160000  
C 19.6580000   17.2750000   21.1500000  
C 20.9960000   17.2970000   21.2460000  
N 21.3270000   16.5280000   22.4040000  
O 21.3600000   18.6080000   19.3800000  
C 21.9130000   17.9560000   20.3960000  
O 23.1370000   17.9290000   20.5750000  
O 18.4020000   14.2810000   25.6680000  
O 16.2600000   15.3110000   24.1710000  
H 19.0780000   17.7700000   20.4340000  
H 20.3690000   18.4940000   19.4330000  
H 22.2550000   16.4200000   22.7500000  
H 19.1690000   13.7510000   25.8780000  
H 15.7600000   15.3070000   23.2880000  
C 21.1020000   14.8100000   24.8460000  
C 21.6840000   15.7350000   25.7320000  
C 22.8000000   15.4000000   26.5050000  
C 23.6080000   14.2080000   26.2730000  
C 23.0130000   13.2740000   25.3760000  
C 21.8370000   13.5910000   24.6300000  
C 21.2940000   17.0550000   26.1460000  
C 22.1170000   17.4700000   27.2000000  
N 23.0570000   16.4230000   27.4040000  
O 20.8450000   19.3830000   27.7000000  
C 21.9260000   18.6930000   27.9980000  
O 22.6420000   19.0200000   28.9070000  
O 23.5480000   12.0000000   25.4170000  
O 21.2600000   12.6220000   23.8230000  
H 20.4810000   17.6290000   25.6810000  
H 20.3860000   18.8620000   27.0240000  
H 23.7960000   16.4530000   28.1190000  
H 23.1000000   11.4790000   24.7630000  
H 20.4440000   12.9720000   23.3140000  
H 24.5150000   13.9100000   26.7660000  
