78
110 
C 15.0960000   13.4580000   15.5670000  
C 13.7080000   13.6680000   15.4470000  
C 12.9460000   14.2130000   16.4990000  
C 13.5790000   14.6190000   17.5810000  
C 14.9660000   14.4890000   17.8100000  
C 15.7290000   13.9180000   16.7760000  
C 11.5500000   14.7100000   16.5550000  
C 11.4360000   15.4320000   17.7720000  
N 12.6980000   15.3000000   18.4590000  
O  9.1300000   16.1780000   17.6270000  
C 10.2750000   16.1120000   18.3770000  
O 10.2720000   16.5620000   19.5510000  
O 17.0350000   13.9260000   16.8160000  
O 15.7760000   12.8840000   14.6020000  
H 13.1670000   13.4220000   14.4690000  
H 10.7420000   14.5930000   15.7820000  
H  9.3800000   15.7880000   16.7550000  
H 13.0130000   15.7110000   19.3110000  
H 17.3760000   14.3080000   17.6510000  
H 16.6630000   12.6900000   14.9250000  
C 15.5360000   14.9900000   19.0640000  
C 15.8950000   14.1330000   20.1370000  
C 16.6850000   14.6000000   21.1390000  
C 17.0540000   15.9580000   21.2930000  
C 16.6560000   16.8520000   20.2650000  
C 15.9340000   16.3510000   19.1440000  
C 15.7670000   12.7170000   20.3270000  
C 16.4860000   12.3870000   21.4530000  
N 16.9840000   13.5950000   21.9580000  
O 16.7260000   10.0610000   21.0310000  
C 17.0380000   11.0650000   21.8340000  
O 17.8920000   10.8770000   22.7150000  
O 16.9630000   18.1810000   20.2240000  
O 15.5430000   17.2510000   18.1380000  
H 15.3470000   12.0160000   19.5740000  
H 15.9830000   10.4430000   20.4820000  
H 17.8270000   13.5950000   22.6010000  
H 17.1510000   18.5870000   21.1250000  
H 14.7270000   16.9450000   17.7580000  
C 17.7070000   16.4370000   22.5520000  
C 19.0910000   16.9060000   22.5000000  
C 19.6490000   17.3250000   23.6510000  
C 19.1090000   17.4300000   24.9340000  
C 17.7780000   16.9070000   25.0220000  
C 17.1200000   16.4000000   23.8380000  
C 20.1160000   16.9760000   21.4910000  
C 21.2390000   17.5740000   22.0800000  
N 20.9600000   17.7650000   23.4220000  
O 22.5420000   17.5420000   20.1230000  
C 22.4970000   17.9500000   21.4050000  
O 23.3430000   18.5810000   22.0070000  
O 16.9790000   17.0570000   26.1650000  
O 15.8330000   15.9850000   23.9680000  
H 20.0270000   16.7990000   20.4500000  
H 21.7520000   17.0730000   19.7990000  
H 21.5200000   18.0830000   24.2260000  
H 16.6080000   17.9380000   26.2340000  
H 15.6180000   15.6740000   23.0570000  
C 19.8680000   18.0350000   26.1270000  
C 20.2730000   19.3870000   26.1200000  
C 20.7730000   19.9710000   27.2560000  
C 21.1140000   19.1940000   28.3770000  
C 20.6940000   17.8640000   28.4290000  
C 20.0980000   17.2580000   27.3060000  
C 20.2020000   20.4100000   25.1380000  
C 20.5440000   21.5760000   25.7820000  
N 20.8970000   21.2740000   27.1200000  
O 20.5760000   22.8350000   23.7730000  
C 20.5830000   22.9200000   25.1080000  
O 20.9410000   23.9090000   25.7400000  
O 21.0010000   17.1880000   29.5900000  
O 19.7140000   15.9560000   27.3660000  
H 19.7250000   20.3670000   24.1220000  
H 20.3200000   21.9290000   23.5890000  
H 21.0180000   21.8580000   27.8740000  
H 20.6720000   16.2960000   29.4530000  
H 19.3010000   15.7790000   26.5200000  
H 21.4180000   19.7130000   29.3230000  
