78
110 
C 13.3580000   21.9400000   25.3270000  
C 12.0840000   22.1140000   24.7030000  
C 11.8110000   21.3620000   23.5610000  
C 12.7760000   20.4380000   23.1750000  
C 14.0060000   20.1440000   23.7290000  
C 14.2810000   20.9100000   24.8940000  
C 10.6360000   21.0680000   22.7730000  
C 10.9830000   20.1100000   21.9080000  
N 12.2690000   19.6460000   22.1320000  
O  8.8340000   19.9960000   20.8860000  
C 10.0890000   19.5690000   20.8440000  
O 10.5050000   18.8120000   20.0100000  
O 15.4300000   20.6530000   25.5980000  
O 13.6650000   22.7150000   26.4010000  
H 11.3220000   22.7680000   25.1080000  
H  9.6480000   21.5780000   22.7730000  
H  8.8430000   20.4890000   21.7380000  
H 12.7040000   18.8890000   21.5690000  
H 15.8370000   19.9120000   25.1920000  
H 14.5970000   22.6630000   26.6010000  
C 14.9510000   18.9730000   23.3380000  
C 16.2460000   19.1950000   22.7290000  
C 16.9790000   18.1450000   22.2150000  
C 16.6830000   16.8000000   22.3400000  
C 15.4330000   16.5740000   22.9300000  
C 14.5600000   17.6200000   23.4050000  
C 16.9600000   20.3840000   22.3400000  
C 18.1510000   19.9670000   21.6910000  
N 18.1760000   18.5570000   21.6190000  
O 18.8830000   22.1420000   21.0420000  
C 19.2510000   20.8210000   21.1800000  
O 20.3550000   20.4260000   20.8280000  
O 15.0810000   15.3410000   23.1910000  
O 13.3500000   17.1930000   23.8450000  
H 16.7580000   21.3930000   22.6150000  
H 17.9360000   22.2200000   21.3610000  
H 18.7620000   17.9770000   21.0460000  
H 15.7430000   14.7250000   22.7250000  
H 13.3430000   16.2120000   23.8750000  
C 17.5390000   15.7320000   21.6450000  
C 18.8150000   15.4210000   22.1840000  
C 19.6580000   14.5300000   21.5660000  
C 19.3740000   14.0960000   20.2810000  
C 18.0430000   14.1370000   19.8650000  
C 17.0630000   15.0090000   20.4730000  
C 19.5840000   16.0130000   23.2820000  
C 20.8420000   15.3850000   23.2790000  
N 20.8600000   14.4810000   22.1690000  
O 21.8220000   16.6590000   25.0880000  
C 22.0580000   15.7360000   24.1260000  
O 23.1390000   15.1440000   24.0150000  
O 17.8140000   13.4620000   18.7100000  
O 15.7820000   14.9850000   20.0100000  
H 19.2240000   16.5550000   24.0830000  
H 20.9110000   16.9560000   25.0460000  
H 21.6540000   13.9690000   21.9230000  
H 18.5300000   12.7010000   18.6900000  
H 15.7240000   14.4860000   19.1870000  
C 20.3940000   13.3100000   19.5370000  
C 20.9000000   12.1860000   20.1660000  
C 21.9050000   11.4060000   19.6490000  
C 22.5410000   11.7360000   18.4570000  
C 22.0470000   12.8410000   17.7490000  
C 20.9770000   13.6380000   18.2430000  
C 20.3690000   11.4540000   21.3190000  
C 21.2200000   10.3610000   21.5170000  
N 22.1670000   10.3630000   20.5410000  
O 19.9760000    9.3600000   23.1910000  
C 21.0740000    9.2540000   22.4740000  
O 21.6920000    8.1990000   22.5850000  
O 22.5650000   12.9640000   16.4680000  
O 20.5960000   14.7270000   17.6010000  
H 19.4960000   11.6730000   21.8280000  
H 19.2920000    9.8820000   22.6730000  
H 22.8220000    9.6690000   20.4420000  
H 21.9580000   13.6410000   16.1120000  
H 20.1210000   15.2970000   18.1960000  
H 23.3080000   11.1620000   17.9440000  
