78
110 
C 12.9320000   19.0860000   16.9040000  
C 11.9490000   18.0750000   16.4770000  
C 11.9030000   16.9010000   17.2170000  
C 12.5860000   16.8060000   18.3630000  
C 13.5640000   17.7300000   18.7820000  
C 13.7530000   18.8680000   18.0020000  
C 11.0420000   15.7690000   17.1220000  
C 11.3120000   14.9010000   18.1930000  
N 12.3490000   15.5820000   18.9310000  
O  9.6830000   13.3270000   17.6980000  
C 10.6570000   13.6700000   18.5060000  
O 11.0240000   12.9630000   19.4370000  
O 14.7320000   19.7230000   18.3510000  
O 13.0130000   20.1870000   16.1340000  
H 11.2570000   18.1750000   15.6420000  
H 10.1440000   15.7210000   16.5400000  
H  9.6950000   13.9610000   17.0130000  
H 12.8970000   15.2120000   19.7140000  
H 14.9460000   19.7880000   19.2990000  
H 13.7670000   20.7350000   16.5070000  
C 14.4270000   17.2990000   19.8990000  
C 15.3740000   16.2830000   19.7320000  
C 16.2350000   15.9280000   20.7400000  
C 16.3580000   16.5570000   21.9740000  
C 15.3710000   17.5770000   22.2580000  
C 14.4440000   17.9140000   21.2250000  
C 15.6730000   15.4690000   18.5830000  
C 16.6230000   14.5780000   19.0390000  
N 17.0710000   14.9270000   20.3120000  
O 16.6120000   13.3780000   16.9600000  
C 17.2110000   13.4560000   18.1380000  
O 18.1120000   12.7320000   18.4670000  
O 15.4720000   18.3120000   23.4330000  
O 13.4880000   18.8770000   21.4360000  
H 15.1580000   15.4260000   17.6400000  
H 15.8440000   13.9410000   17.0740000  
H 17.8770000   14.6560000   20.8670000  
H 16.1950000   17.9990000   23.9830000  
H 12.7980000   18.6900000   20.7670000  
C 17.4250000   16.1690000   22.9220000  
C 18.7860000   16.4070000   22.5530000  
C 19.7750000   16.0920000   23.4190000  
C 19.5140000   15.9220000   24.7790000  
C 18.2130000   15.8140000   25.2320000  
C 17.1660000   15.8480000   24.3190000  
C 19.4840000   16.8230000   21.3250000  
C 20.8640000   16.8670000   21.6780000  
N 21.0360000   16.3330000   22.9920000  
O 21.6470000   17.9280000   19.7460000  
C 22.0350000   17.3430000   20.9070000  
O 23.1940000   17.3490000   21.3240000  
O 17.9840000   15.6320000   26.5940000  
O 15.8480000   15.6400000   24.8040000  
H 19.0330000   17.1280000   20.3850000  
H 20.7220000   17.7570000   19.6610000  
H 21.9290000   16.1780000   23.4660000  
H 18.8510000   15.6490000   26.9750000  
H 15.0840000   16.1120000   24.3340000  
C 20.6040000   15.8060000   25.7940000  
C 21.5480000   16.8390000   26.1080000  
C 22.6010000   16.6750000   26.8860000  
C 22.9290000   15.4540000   27.4570000  
C 22.0190000   14.3850000   27.2760000  
C 20.9210000   14.5230000   26.4590000  
C 21.6040000   18.1580000   25.5520000  
C 22.7480000   18.7390000   26.0730000  
N 23.4260000   17.8030000   26.8100000  
O 22.2850000   20.8160000   25.1320000  
C 23.1990000   20.0880000   25.7920000  
O 24.2160000   20.5780000   26.2010000  
O 22.3730000   13.1700000   27.8300000  
O 20.0650000   13.4150000   26.2620000  
H 20.8990000   18.5480000   24.7870000  
H 21.6190000   20.1680000   24.8040000  
H 24.3710000   17.8320000   27.1710000  
H 21.8430000   12.4800000   27.3670000  
H 19.4570000   13.7210000   25.4950000  
H 23.8120000   15.3000000   28.1070000  
