78
110 
C 14.6880000   15.8740000   28.5930000  
C 14.9630000   17.0160000   29.4150000  
C 15.6810000   18.0580000   28.8190000  
C 16.0980000   17.9690000   27.5490000  
C 15.8170000   16.9200000   26.6540000  
C 15.0860000   15.8630000   27.2850000  
C 16.1270000   19.3750000   29.2990000  
C 16.7790000   19.9840000   28.2010000  
N 16.7740000   19.0500000   27.0940000  
O 17.5490000   21.9640000   29.2670000  
C 17.4720000   21.2570000   28.1590000  
O 17.9170000   21.6510000   27.1040000  
O 14.6490000   14.8240000   26.5100000  
O 14.0980000   14.8480000   29.1700000  
H 14.7750000   17.0390000   30.4810000  
H 16.1480000   19.8570000   30.2860000  
H 17.0540000   21.4730000   29.9840000  
H 17.0900000   19.1740000   26.1180000  
H 14.8360000   14.9680000   25.5700000  
H 14.1110000   13.9800000   28.6520000  
C 16.3130000   16.9540000   25.2510000  
C 17.6740000   16.6900000   24.9990000  
C 18.2310000   16.6580000   23.7230000  
C 17.4980000   16.8770000   22.5220000  
C 16.0980000   17.1080000   22.7560000  
C 15.5470000   17.0590000   24.0870000  
C 18.7860000   16.3310000   25.8650000  
C 19.9420000   16.0340000   25.0770000  
N 19.5880000   16.3330000   23.7270000  
O 21.4860000   15.3370000   26.7470000  
C 21.2680000   15.5740000   25.4570000  
O 22.1560000   15.4350000   24.6680000  
O 15.2300000   17.3320000   21.7320000  
O 14.2100000   17.2580000   24.2410000  
H 18.7510000   16.3880000   27.0010000  
H 20.5940000   15.4850000   27.1740000  
H 20.1990000   16.4130000   22.9220000  
H 15.7630000   17.6990000   20.9810000  
H 13.9310000   17.6530000   23.4200000  
C 18.0770000   16.6950000   21.1300000  
C 18.2780000   15.4420000   20.5870000  
C 18.4030000   15.2580000   19.2820000  
C 18.4330000   16.3210000   18.3380000  
C 18.3080000   17.6460000   18.8320000  
C 18.1170000   17.8160000   20.2520000  
C 18.0920000   14.1060000   21.1930000  
C 18.0760000   13.1930000   20.1540000  
N 18.2980000   13.8800000   18.9250000  
O 17.6160000   11.1740000   21.5400000  
C 17.9320000   11.6790000   20.2830000  
O 18.0380000   10.9650000   19.3230000  
O 18.3090000   18.6610000   17.9650000  
O 17.8780000   19.1000000   20.7540000  
H 17.9230000   13.8700000   22.2570000  
H 17.5140000   11.9370000   22.0940000  
H 18.4950000   13.4680000   18.0250000  
H 18.3640000   18.2000000   17.1040000  
H 17.9550000   19.7020000   20.0370000  
C 18.6420000   16.0070000   16.9010000  
C 17.5900000   16.2340000   15.9460000  
C 17.8270000   16.0600000   14.5780000  
C 19.0000000   15.5680000   14.0810000  
C 19.9720000   15.1720000   15.0150000  
C 19.8370000   15.4130000   16.3690000  
C 16.2280000   16.7020000   16.1360000  
C 15.7300000   16.9210000   14.8350000  
N 16.7110000   16.4780000   13.9060000  
O 13.4330000   17.6930000   15.2660000  
C 14.3740000   17.2880000   14.4260000  
O 14.1590000   17.1590000   13.2220000  
O 21.1340000   14.6280000   14.5540000  
O 20.8150000   14.9590000   17.2390000  
H 15.6680000   16.8000000   17.0770000  
H 13.8340000   17.7210000   16.1850000  
H 16.4480000   16.0980000   12.9620000  
H 21.5960000   14.1940000   15.3300000  
H 20.6080000   15.2630000   18.0910000  
H 19.1830000   15.4650000   13.0160000  
