78
110 
C 19.6730000    9.4980000   21.6430000  
C 19.1910000    8.8970000   20.4880000  
C 18.1830000    9.5140000   19.7390000  
C 17.7570000   10.7780000   20.1110000  
C 18.3270000   11.5950000   21.0830000  
C 19.2500000   10.8630000   21.9270000  
C 17.5160000    9.2160000   18.4810000  
C 16.6140000   10.2270000   18.2850000  
N 16.8920000   11.2860000   19.2040000  
O 15.5550000    9.0570000   16.5290000  
C 15.5600000   10.1570000   17.2350000  
O 14.6510000   10.9540000   17.0580000  
O 19.8390000   11.4440000   22.9890000  
O 20.5150000    8.8070000   22.4900000  
H 19.6410000    7.9760000   20.0920000  
H 17.5150000    8.2760000   17.9430000  
H 16.2440000    8.4390000   16.8430000  
H 16.4780000   12.2090000   19.2860000  
H 19.5250000   12.3230000   22.9580000  
H 20.5000000    9.1670000   23.3660000  
C 17.9910000   13.0030000   21.2560000  
C 17.3740000   13.5290000   22.4520000  
C 17.0030000   14.8330000   22.5640000  
C 17.2400000   15.8080000   21.5990000  
C 17.8130000   15.3350000   20.3810000  
C 18.2450000   13.9860000   20.2340000  
C 16.9700000   12.8480000   23.6320000  
C 16.2900000   13.8360000   24.3320000  
N 16.2830000   15.0640000   23.7020000  
O 15.5080000   12.3680000   25.9220000  
C 15.3720000   13.6120000   25.4640000  
O 14.6010000   14.4650000   25.9230000  
O 18.0950000   16.1510000   19.2820000  
O 18.8930000   13.6810000   19.0690000  
H 17.0730000   11.7700000   23.8930000  
H 16.1730000   11.9160000   25.4190000  
H 15.8700000   15.9650000   24.0800000  
H 17.8090000   17.0740000   19.4750000  
H 18.9800000   14.4300000   18.5340000  
C 16.9330000   17.2180000   21.8150000  
C 17.5800000   17.9200000   22.8440000  
C 17.3610000   19.2350000   23.0420000  
C 16.4420000   19.9910000   22.3160000  
C 15.8250000   19.3660000   21.2560000  
C 16.0490000   17.9870000   21.0010000  
C 18.4640000   17.5030000   23.9300000  
C 18.5780000   18.6000000   24.8210000  
N 17.9460000   19.6920000   24.2500000  
O 20.0830000   17.4080000   26.1210000  
C 19.3300000   18.5350000   26.0340000  
O 19.4520000   19.4160000   26.9040000  
O 15.0420000   20.1460000   20.3980000  
O 15.5340000   17.4920000   19.8860000  
H 18.9000000   16.4330000   24.0690000  
H 19.9970000   17.0080000   25.2690000  
H 17.7800000   20.5940000   24.7210000  
H 14.9110000   21.0650000   20.7890000  
H 15.2080000   16.5950000   20.0360000  
C 16.2910000   21.4960000   22.4810000  
C 17.4220000   22.2280000   22.0760000  
C 17.4560000   23.5820000   22.2400000  
C 16.3480000   24.2850000   22.6840000  
C 15.1950000   23.6180000   23.0380000  
C 15.1280000   22.2050000   22.9500000  
C 18.6590000   21.8280000   21.3690000  
C 19.3910000   23.0440000   21.1980000  
N 18.6110000   24.0630000   21.7280000  
O 21.0260000   22.0800000   19.7960000  
C 20.6170000   23.2310000   20.4010000  
O 21.1500000   24.3020000   20.1900000  
O 14.1710000   24.3610000   23.4820000  
O 13.9350000   21.6040000   23.2930000  
H 18.9430000   20.8480000   21.0920000  
H 20.3860000   21.4620000   20.0940000  
H 18.8070000   24.9970000   21.6630000  
H 13.3100000   23.8390000   23.4850000  
H 13.8710000   20.6750000   23.0740000  
H 16.3660000   25.3810000   22.7050000  
