78
110 
C 19.7930000   10.0410000   24.5460000  
C 19.6630000    9.0210000   23.6050000  
C 19.1800000    9.4020000   22.3570000  
C 18.8330000   10.6740000   22.0630000  
C 18.9490000   11.7380000   22.9990000  
C 19.4780000   11.4060000   24.2870000  
C 18.8610000    8.6770000   21.1380000  
C 18.4060000    9.5640000   20.1740000  
N 18.4520000   10.8300000   20.7380000  
O 17.8910000    7.9940000   18.3980000  
C 17.8850000    9.3010000   18.8210000  
O 17.4700000   10.1840000   18.0760000  
O 19.6740000   12.3500000   25.2760000  
O 20.0500000    9.6240000   25.8420000  
H 19.9330000    8.0440000   23.8430000  
H 18.9430000    7.5590000   21.0090000  
H 18.2360000    7.5110000   19.1440000  
H 18.3630000   11.7130000   20.2620000  
H 19.3890000   13.2430000   24.9970000  
H 20.2550000   10.4090000   26.3940000  
C 18.4810000   13.1010000   22.5660000  
C 17.3300000   13.6530000   23.1570000  
C 16.9010000   14.8800000   22.7570000  
C 17.5240000   15.6220000   21.7190000  
C 18.7790000   15.1020000   21.1810000  
C 19.2380000   13.9100000   21.7210000  
C 16.2250000   13.1380000   24.0070000  
C 15.3390000   14.2070000   24.1660000  
N 15.7270000   15.2970000   23.3590000  
O 13.8840000   13.0430000   25.6120000  
C 14.2160000   14.2560000   25.0300000  
O 13.5220000   15.2720000   25.1160000  
O 19.5280000   15.7940000   20.2740000  
O 20.3430000   13.2920000   21.1830000  
H 16.1720000   12.1270000   24.5470000  
H 14.5660000   12.5360000   25.2440000  
H 15.2340000   16.1850000   23.2470000  
H 19.0590000   16.5840000   19.9480000  
H 20.5900000   13.6290000   20.3030000  
C 17.1020000   17.0070000   21.2570000  
C 17.0200000   18.0310000   22.1730000  
C 16.7490000   19.3510000   21.9010000  
C 16.4200000   19.7480000   20.5890000  
C 16.4870000   18.7060000   19.6010000  
C 16.7860000   17.3660000   20.0000000  
C 17.2440000   18.0480000   23.6020000  
C 17.0970000   19.3210000   24.0980000  
N 16.6400000   20.1780000   23.0350000  
O 17.6000000   18.5180000   26.2760000  
C 17.2970000   19.5800000   25.5210000  
O 17.2560000   20.6850000   25.9860000  
O 16.1710000   19.0310000   18.3370000  
O 16.8650000   16.4020000   19.0730000  
H 17.6610000   17.1260000   24.1120000  
H 17.2640000   17.7830000   25.7610000  
H 16.1120000   21.0620000   23.1980000  
H 16.6260000   19.8700000   18.1060000  
H 16.5730000   15.5090000   19.4310000  
C 16.0790000   21.1670000   20.2670000  
C 16.9870000   22.2290000   20.4010000  
C 16.6760000   23.5150000   20.1060000  
C 15.4090000   23.9040000   19.7540000  
C 14.4930000   22.8880000   19.4220000  
C 14.8080000   21.5230000   19.7310000  
C 18.3340000   22.1910000   20.8710000  
C 18.8770000   23.4150000   20.7390000  
N 17.7920000   24.2920000   20.2660000  
O 21.1560000   22.8430000   21.4220000  
C 20.2810000   23.7340000   20.8520000  
O 20.7140000   24.8050000   20.5100000  
O 13.2490000   23.0680000   18.8730000  
O 13.7950000   20.5280000   19.6880000  
H 18.8570000   21.2410000   21.1170000  
H 20.6570000   22.0570000   21.7480000  
H 17.8750000   25.2250000   19.9520000  
H 12.8530000   22.1360000   18.6830000  
H 14.3130000   19.7250000   19.9700000  
H 15.1570000   24.9790000   19.5780000  
