78
110 
C 14.3000000   15.2640000   15.3560000  
C 12.9100000   15.0750000   15.3970000  
C 12.3150000   14.9000000   16.6490000  
C 12.9910000   15.3300000   17.7840000  
C 14.3220000   15.7750000   17.7910000  
C 15.0320000   15.6140000   16.5630000  
C 10.9890000   14.5460000   17.0950000  
C 10.9330000   14.7420000   18.4720000  
N 12.1320000   15.3460000   18.9030000  
O  8.5630000   14.3100000   18.5760000  
C  9.6630000   14.6200000   19.2410000  
O  9.6630000   14.8980000   20.3930000  
O 16.3690000   15.7030000   16.4750000  
O 14.8250000   15.2950000   14.1400000  
H 12.3000000   14.7230000   14.5160000  
H 10.1120000   14.1040000   16.5200000  
H  8.9550000   14.1050000   17.6840000  
H 12.3760000   15.6490000   19.8950000  
H 16.7360000   15.8160000   17.4060000  
H 15.7340000   15.4690000   14.1950000  
C 15.1390000   16.0860000   19.0100000  
C 16.0150000   15.1120000   19.5090000  
C 16.7450000   15.4140000   20.6460000  
C 16.6660000   16.5840000   21.4290000  
C 15.8420000   17.5800000   20.8340000  
C 15.0880000   17.3430000   19.6440000  
C 16.5680000   13.9160000   19.0060000  
C 17.5470000   13.4890000   19.8860000  
N 17.7110000   14.4930000   20.8590000  
O 17.6550000   11.3080000   19.0330000  
C 18.1720000   12.1800000   19.8850000  
O 19.0060000   11.8170000   20.6690000  
O 15.6370000   18.7700000   21.4150000  
O 14.3800000   18.3270000   19.0820000  
H 16.2890000   13.4840000   18.0460000  
H 17.0490000   11.8690000   18.5960000  
H 18.3410000   14.4240000   21.6400000  
H 15.7510000   18.7120000   22.3840000  
H 14.1970000   18.0200000   18.1990000  
C 17.5430000   16.8440000   22.6470000  
C 18.9440000   16.8020000   22.5520000  
C 19.6840000   17.0630000   23.6220000  
C 19.2210000   17.2680000   24.9050000  
C 17.8080000   17.2770000   25.0360000  
C 16.9500000   17.0070000   23.9340000  
C 19.8300000   16.6640000   21.4270000  
C 21.1220000   16.8390000   21.9240000  
N 20.9960000   17.0080000   23.3180000  
O 22.2360000   16.3910000   19.8980000  
C 22.4110000   16.6620000   21.2420000  
O 23.4390000   16.8860000   21.7940000  
O 17.2500000   17.5110000   26.2740000  
O 15.5990000   16.9320000   24.1390000  
H 19.5850000   16.4690000   20.4300000  
H 21.2500000   16.2630000   19.7960000  
H 21.7320000   17.1200000   23.9800000  
H 17.9830000   17.4700000   26.9460000  
H 15.1400000   16.8120000   23.3330000  
C 20.1180000   17.3330000   26.1120000  
C 20.7520000   18.5230000   26.4390000  
C 21.4450000   18.6440000   27.6070000  
C 21.7320000   17.6270000   28.5430000  
C 21.0880000   16.4100000   28.2330000  
C 20.3330000   16.2650000   27.0630000  
C 20.7130000   19.7500000   25.7180000  
C 21.4320000   20.6150000   26.5530000  
N 21.9090000   19.9130000   27.6740000  
O 21.3250000   22.5640000   25.0940000  
C 21.8350000   21.9900000   26.2660000  
O 22.7620000   22.5370000   26.8490000  
O 21.2120000   15.3320000   29.0840000  
O 19.7490000   15.1420000   26.7670000  
H 20.1320000   19.9860000   24.7890000  
H 20.7030000   21.9080000   24.7610000  
H 22.4090000   20.3020000   28.4930000  
H 20.4960000   14.7400000   28.7380000  
H 19.4730000   15.1720000   25.8840000  
H 22.3440000   17.8380000   29.4510000  
