78
110 
C 18.7330000   12.3120000   27.6440000  
C 19.5970000   11.2520000   27.4260000  
C 20.1650000   11.0760000   26.1420000  
C 19.7700000   11.9100000   25.0550000  
C 18.8260000   12.9540000   25.2620000  
C 18.3340000   13.1750000   26.5880000  
C 20.7900000    9.9320000   25.5890000  
C 20.7250000   10.0880000   24.1940000  
N 20.0590000   11.3180000   23.8440000  
O 22.0770000    8.1570000   23.6300000  
C 21.5100000    9.3570000   23.2040000  
O 21.5810000    9.8310000   22.0790000  
O 17.4880000   14.2560000   26.8250000  
O 18.1840000   12.6030000   28.8460000  
H 19.7750000   10.5380000   28.2520000  
H 21.1860000    9.0300000   26.0760000  
H 21.8890000    8.0510000   24.5550000  
H 19.6770000   11.5960000   22.9220000  
H 17.3260000   14.7200000   25.9710000  
H 17.5640000   13.2740000   28.7210000  
C 18.5480000   13.9510000   24.1810000  
C 17.2530000   14.2460000   23.7370000  
C 16.9680000   15.1110000   22.7520000  
C 17.9200000   15.9280000   22.1590000  
C 19.2720000   15.7150000   22.5970000  
C 19.5620000   14.7630000   23.6390000  
C 16.0840000   13.4600000   23.9350000  
C 15.0130000   14.0720000   23.2550000  
N 15.6130000   15.0740000   22.4480000  
O 13.3100000   12.4840000   23.9120000  
C 13.6960000   13.5740000   23.1790000  
O 12.8110000   14.0840000   22.5160000  
O 20.3170000   16.4220000   22.0240000  
O 20.8710000   14.6270000   24.0210000  
H 16.1240000   12.4980000   24.4580000  
H 14.1250000   12.2560000   24.4740000  
H 15.2220000   15.5500000   21.6660000  
H 19.9120000   17.2440000   21.6230000  
H 20.9090000   13.8100000   24.5730000  
C 17.5650000   16.8570000   21.1350000  
C 16.7050000   17.9450000   21.3370000  
C 16.3400000   18.7600000   20.2820000  
C 16.8680000   18.6850000   19.0120000  
C 17.7420000   17.5820000   18.7290000  
C 18.0250000   16.6850000   19.7800000  
C 15.9780000   18.3660000   22.4860000  
C 15.2650000   19.4860000   22.0730000  
N 15.6060000   19.7610000   20.7500000  
O 13.9600000   19.6670000   24.0530000  
C 14.1820000   20.1850000   22.7720000  
O 13.6490000   21.1890000   22.2970000  
O 18.2590000   17.3080000   17.5260000  
O 18.8750000   15.5880000   19.5660000  
H 15.8570000   17.9470000   23.5400000  
H 14.3470000   18.7840000   23.9750000  
H 15.2210000   20.5410000   20.1730000  
H 17.8920000   17.9840000   16.9510000  
H 19.3520000   15.4230000   20.4570000  
C 16.4420000   19.7260000   18.0710000  
C 16.9930000   20.9850000   18.1660000  
C 16.5760000   22.0650000   17.3840000  
C 15.5880000   21.9210000   16.3360000  
C 15.0810000   20.6070000   16.2280000  
C 15.4610000   19.4950000   17.0950000  
C 17.7580000   21.5540000   19.2320000  
C 17.8300000   22.9670000   18.9700000  
N 17.0760000   23.1970000   17.8500000  
O 19.0340000   23.4610000   20.9300000  
C 18.4160000   23.9850000   19.8050000  
O 18.3230000   25.1770000   19.5970000  
O 14.1040000   20.3910000   15.3080000  
O 14.8010000   18.2450000   17.0210000  
H 18.2120000   21.0080000   20.0530000  
H 18.9690000   22.4930000   20.7710000  
H 16.9480000   24.0050000   17.3280000  
H 14.0790000   19.4330000   15.1020000  
H 14.5600000   18.0420000   17.9450000  
H 15.2560000   22.7550000   15.6960000  
