78
110 
C 13.9930000   20.7730000   26.6810000  
C 12.8350000   21.3780000   26.1480000  
C 12.4670000   21.0490000   24.8660000  
C 13.0930000   20.0460000   24.1990000  
C 14.1910000   19.3470000   24.6720000  
C 14.5900000   19.6780000   25.9900000  
C 11.4630000   21.5750000   23.9910000  
C 11.6510000   20.9410000   22.7750000  
N 12.6660000   20.0420000   22.8990000  
O  9.8860000   22.0740000   21.5980000  
C 10.9120000   21.1440000   21.4590000  
O 11.1360000   20.5410000   20.4270000  
O 15.6880000   19.0730000   26.5270000  
O 14.4450000   21.2740000   27.8810000  
H 12.2160000   22.0980000   26.7060000  
H 10.7210000   22.3290000   24.2880000  
H 10.1290000   22.4480000   22.4830000  
H 12.9830000   19.3050000   22.2480000  
H 16.2400000   18.6860000   25.8080000  
H 14.9130000   20.5310000   28.3520000  
C 14.9800000   18.4170000   23.8220000  
C 16.2470000   18.8520000   23.4410000  
C 17.0180000   18.0400000   22.6120000  
C 16.6550000   16.8360000   22.0350000  
C 15.3350000   16.4130000   22.3820000  
C 14.5680000   17.1100000   23.2980000  
C 17.0110000   20.0840000   23.6040000  
C 18.1740000   19.9710000   22.7620000  
N 18.1180000   18.6990000   22.1640000  
O 18.8990000   22.1030000   23.2520000  
C 19.1110000   21.0660000   22.4650000  
O 19.8990000   21.0410000   21.5560000  
O 14.7640000   15.1780000   21.9340000  
O 13.4370000   16.4890000   23.7520000  
H 16.7580000   20.9850000   24.1480000  
H 18.1130000   21.8950000   23.8410000  
H 18.6570000   18.2800000   21.4430000  
H 15.3190000   14.8920000   21.1420000  
H 13.2990000   15.6050000   23.3080000  
C 17.5420000   16.0250000   21.1720000  
C 18.8440000   15.6760000   21.6060000  
C 19.6640000   14.9390000   20.8100000  
C 19.3350000   14.4040000   19.5870000  
C 18.0360000   14.7260000   19.1020000  
C 17.1390000   15.5260000   19.8960000  
C 19.5590000   15.8900000   22.8480000  
C 20.8000000   15.2260000   22.7570000  
N 20.8330000   14.7580000   21.4610000  
O 21.6700000   15.5680000   25.0290000  
C 21.8630000   14.9350000   23.8270000  
O 22.8090000   14.1680000   23.6700000  
O 17.5350000   14.2940000   17.8790000  
O 15.9610000   16.0180000   19.3560000  
H 19.1340000   16.2140000   23.7670000  
H 20.7890000   16.0390000   24.9720000  
H 21.5580000   14.1890000   21.0790000  
H 18.2420000   13.9080000   17.3080000  
H 15.8210000   15.5920000   18.5120000  
C 20.2000000   13.4620000   18.8330000  
C 20.5410000   12.2320000   19.3250000  
C 21.4890000   11.4640000   18.8030000  
C 22.1640000   11.8160000   17.6260000  
C 21.7230000   13.0010000   17.0030000  
C 20.7570000   13.8540000   17.6040000  
C 19.9370000   11.4880000   20.3950000  
C 20.5170000   10.2350000   20.3450000  
N 21.5620000   10.2720000   19.4310000  
O 19.1480000    9.2200000   22.0450000  
C 20.1500000    9.1190000   21.2280000  
O 20.8020000    8.0670000   21.2080000  
O 22.4390000   13.3370000   15.8920000  
O 20.3970000   14.9900000   17.0160000  
H 19.1130000   11.7460000   21.0010000  
H 19.1430000   10.2140000   22.2020000  
H 22.1160000    9.5380000   19.1940000  
H 22.4650000   12.5580000   15.3360000  
H 20.2390000   15.6820000   17.6830000  
H 22.9310000   11.1310000   17.1860000  
