78
110 
C 12.6120000   21.9860000   19.5280000  
C 11.4780000   21.3840000   18.9490000  
C 11.4870000   19.9820000   19.0140000  
C 12.4930000   19.2910000   19.6450000  
C 13.6120000   19.8370000   20.2690000  
C 13.6260000   21.2570000   20.1830000  
C 10.5830000   18.9530000   18.5770000  
C 11.0090000   17.7010000   19.0930000  
N 12.1980000   17.9160000   19.7500000  
O  9.0600000   16.2650000   18.3670000  
C 10.2860000   16.3720000   19.0340000  
O 10.7380000   15.3420000   19.5460000  
O 14.5610000   21.9700000   20.8780000  
O 12.7060000   23.3320000   19.3790000  
H 10.7960000   21.9430000   18.3370000  
H  9.6020000   19.1060000   18.0940000  
H  8.9790000   17.2090000   18.0320000  
H 12.6980000   17.2740000   20.3630000  
H 15.0340000   21.2940000   21.3780000  
H 13.6330000   23.5540000   19.6010000  
C 14.6950000   19.0660000   21.0200000  
C 15.2350000   17.8880000   20.3810000  
C 16.2570000   17.1450000   20.9960000  
C 16.8810000   17.5100000   22.1670000  
C 16.3530000   18.6470000   22.8060000  
C 15.2320000   19.3380000   22.3200000  
C 14.9830000   17.2060000   19.1400000  
C 15.7350000   15.9930000   19.1630000  
N 16.5090000   15.9680000   20.3110000  
O 15.1190000   15.4200000   16.9920000  
C 15.7280000   14.9200000   18.0580000  
O 16.2220000   13.8080000   18.1070000  
O 17.0340000   18.9910000   23.9550000  
O 14.6970000   20.3500000   23.0530000  
H 14.2610000   17.4570000   18.3920000  
H 14.9070000   16.4000000   17.1200000  
H 17.0850000   15.1990000   20.5720000  
H 17.7240000   18.3410000   24.0180000  
H 15.2450000   20.3590000   23.8910000  
C 17.8770000   16.5920000   22.8400000  
C 19.1150000   16.3790000   22.2630000  
C 19.9010000   15.4440000   22.7600000  
C 19.7220000   14.7180000   23.9760000  
C 18.5190000   14.9150000   24.6200000  
C 17.6040000   15.8960000   24.0910000  
C 19.6530000   16.8310000   20.9890000  
C 20.7830000   16.0200000   20.7690000  
N 20.8930000   15.1510000   21.8830000  
O 21.1960000   16.7240000   18.5040000  
C 21.5730000   15.8990000   19.5070000  
O 22.3850000   15.0620000   19.2830000  
O 18.1220000   14.2380000   25.7110000  
O 16.4330000   16.1290000   24.7590000  
H 19.1850000   17.4550000   20.2470000  
H 20.6460000   17.3690000   19.0070000  
H 21.6360000   14.5210000   22.1390000  
H 18.9020000   14.0870000   26.2680000  
H 16.3420000   15.6320000   25.6040000  
C 20.6630000   13.5960000   24.3680000  
C 21.9280000   13.9320000   24.8480000  
C 22.8400000   13.0190000   25.2520000  
C 22.5640000   11.6470000   25.3100000  
C 21.2760000   11.2580000   24.9240000  
C 20.3000000   12.1930000   24.5360000  
C 22.6310000   15.2340000   24.8940000  
C 23.8800000   15.0130000   25.4740000  
N 23.9820000   13.6740000   25.7120000  
O 24.6820000   17.1640000   25.1200000  
C 24.9780000   16.0140000   25.7390000  
O 26.0380000   15.8450000   26.2660000  
O 21.0020000    9.9280000   24.9900000  
O 19.0010000   11.8480000   24.4080000  
H 22.2380000   16.1540000   24.5950000  
H 23.9770000   16.9570000   24.4350000  
H 24.7920000   13.2430000   26.1230000  
H 20.1270000    9.8340000   24.6370000  
H 18.4250000   12.7390000   24.4580000  
H 23.2270000   10.8810000   25.7410000  
