78
110 
C 14.4620000   22.5860000   24.5670000  
C 13.0780000   22.4050000   24.8520000  
C 12.4760000   21.2270000   24.3950000  
C 13.2430000   20.2040000   23.9270000  
C 14.6350000   20.2200000   23.8690000  
C 15.2400000   21.5030000   24.1370000  
C 11.1160000   20.6790000   24.4760000  
C 11.1330000   19.3260000   24.0930000  
N 12.4870000   19.0730000   23.7070000  
O  8.7250000   18.8850000   24.2260000  
C 10.0120000   18.3890000   24.1380000  
O 10.1850000   17.1680000   23.9770000  
O 16.5710000   21.6510000   23.7870000  
O 14.9910000   23.8490000   24.8180000  
H 12.5280000   23.2470000   25.2940000  
H 10.2140000   21.2870000   24.6250000  
H  8.7900000   19.8260000   24.2670000  
H 12.8830000   18.1670000   23.4360000  
H 16.7230000   21.0840000   23.0390000  
H 15.9520000   23.8210000   24.8530000  
C 15.4240000   19.1090000   23.2140000  
C 15.4810000   18.9420000   21.8870000  
C 16.1940000   17.9310000   21.3440000  
C 16.9110000   16.9590000   22.0140000  
C 16.7310000   17.0080000   23.4250000  
C 16.0770000   18.0980000   24.0420000  
C 14.8120000   19.6040000   20.8430000  
C 15.2410000   19.0320000   19.6650000  
N 16.2080000   18.0790000   19.9680000  
O 14.0910000   20.4840000   18.1030000  
C 15.0120000   19.4360000   18.2300000  
O 15.5650000   18.9230000   17.2970000  
O 17.2780000   16.0520000   24.2230000  
O 15.9720000   18.1910000   25.3700000  
H 14.1700000   20.4330000   20.8160000  
H 13.8610000   20.5160000   19.0590000  
H 16.5460000   17.3720000   19.2630000  
H 17.8400000   15.5740000   23.7170000  
H 16.4980000   17.5200000   25.6900000  
C 17.7730000   15.9760000   21.2750000  
C 19.1480000   16.1920000   21.3650000  
C 20.0050000   15.2210000   20.8850000  
C 19.6370000   13.9690000   20.3450000  
C 18.2350000   13.6710000   20.3960000  
C 17.3060000   14.6700000   20.8360000  
C 19.9360000   17.2350000   21.8320000  
C 21.2020000   16.8340000   21.8310000  
N 21.2870000   15.6520000   21.1550000  
O 21.9800000   18.7360000   23.0480000  
C 22.3200000   17.5860000   22.4620000  
O 23.4970000   17.2740000   22.3790000  
O 17.7890000   12.4620000   19.9220000  
O 15.9810000   14.3370000   20.7990000  
H 19.5730000   18.1340000   22.2990000  
H 21.0310000   18.7070000   23.2230000  
H 22.0470000   15.0540000   21.0140000  
H 18.6430000   11.9950000   19.6900000  
H 15.8400000   13.5460000   20.3000000  
C 20.7110000   13.0380000   19.8270000  
C 20.9240000   11.8730000   20.5060000  
C 21.9630000   10.9900000   20.1410000  
C 22.7520000   11.2030000   19.0060000  
C 22.5690000   12.3600000   18.2580000  
C 21.6500000   13.3050000   18.7270000  
C 20.4510000   11.3910000   21.7760000  
C 21.0640000   10.1580000   22.0210000  
N 21.9820000    9.9250000   21.0040000  
O 19.8480000    9.8690000   23.8660000  
C 20.7900000    9.3040000   23.2010000  
O 21.3760000    8.3480000   23.5820000  
O 23.4240000   12.6680000   17.2290000  
O 21.7010000   14.5690000   18.1600000  
H 19.7910000   11.9110000   22.4040000  
H 19.5310000   10.5230000   23.2490000  
H 22.5210000    9.0820000   20.8800000  
H 23.3420000   13.6620000   17.0890000  
H 21.1390000   15.2600000   18.4820000  
H 23.4680000   10.4140000   18.7580000  
