78
110 
C 13.3450000   18.9110000   27.3950000  
C 12.8390000   20.1570000   27.0880000  
C 13.0180000   20.7010000   25.8490000  
C 13.7130000   19.9700000   24.9170000  
C 14.2940000   18.6810000   25.1830000  
C 14.0870000   18.1430000   26.4580000  
C 12.7080000   22.0320000   25.3090000  
C 13.2830000   22.0070000   24.0620000  
N 13.9140000   20.7630000   23.8450000  
O 12.3920000   24.1370000   23.3380000  
C 13.0550000   23.0130000   23.0000000  
O 13.4680000   22.7940000   21.8840000  
O 14.7790000   17.0760000   26.9510000  
O 13.1830000   18.4890000   28.6960000  
H 12.3340000   20.7450000   27.9060000  
H 12.0910000   22.8070000   25.7390000  
H 12.1210000   24.0740000   24.2650000  
H 14.2960000   20.3840000   22.9780000  
H 15.4200000   16.7850000   26.2400000  
H 13.6230000   17.6010000   28.6920000  
C 15.1070000   17.9470000   24.1000000  
C 16.3630000   18.4280000   23.7440000  
C 17.0100000   17.8890000   22.6600000  
C 16.5110000   16.7840000   21.9130000  
C 15.2460000   16.2550000   22.3130000  
C 14.5480000   16.8590000   23.3870000  
C 17.0830000   19.5860000   24.1560000  
C 18.2040000   19.7380000   23.2800000  
N 18.1630000   18.6020000   22.3730000  
O 19.0750000   21.7850000   24.2490000  
C 19.1410000   20.8570000   23.2660000  
O 19.9630000   20.8910000   22.3480000  
O 14.6050000   15.1880000   21.7320000  
O 13.2910000   16.4310000   23.7010000  
H 16.7160000   20.3300000   24.7850000  
H 18.3590000   21.5950000   24.9360000  
H 18.7520000   18.4840000   21.5820000  
H 15.1680000   14.7520000   21.1050000  
H 13.0420000   15.9380000   22.9190000  
C 17.3080000   16.0670000   20.9160000  
C 18.5690000   15.5890000   21.2680000  
C 19.3750000   14.9230000   20.4080000  
C 19.0430000   14.6780000   19.0630000  
C 17.7740000   15.1810000   18.6970000  
C 16.9660000   15.9050000   19.5740000  
C 19.1260000   15.4090000   22.5870000  
C 20.3780000   14.7880000   22.3600000  
N 20.5630000   14.5040000   20.9990000  
O 20.8310000   14.6660000   24.7140000  
C 21.2920000   14.4350000   23.4140000  
O 22.4250000   14.0180000   23.1410000  
O 17.2650000   14.9000000   17.4740000  
O 15.7360000   16.4780000   19.1550000  
H 18.7930000   15.8940000   23.4870000  
H 19.8820000   14.8500000   24.5410000  
H 21.4210000   14.2640000   20.5540000  
H 17.8390000   14.3530000   17.0130000  
H 15.7320000   16.6100000   18.1750000  
C 19.9640000   13.8380000   18.1530000  
C 20.3190000   12.5430000   18.4760000  
C 21.1780000   11.7880000   17.7440000  
C 21.7900000   12.2110000   16.5490000  
C 21.3730000   13.5280000   16.1600000  
C 20.5500000   14.3600000   16.9670000  
C 19.8720000   11.7710000   19.5900000  
C 20.3130000   10.5330000   19.3280000  
N 21.1390000   10.5460000   18.2510000  
O 18.8830000    9.5320000   20.9910000  
C 19.9410000    9.3680000   20.1380000  
O 20.4630000    8.3050000   19.9340000  
O 21.7600000   13.9660000   14.8850000  
O 20.2050000   15.6000000   16.6070000  
H 19.4580000   12.0550000   20.5180000  
H 18.7350000   10.4630000   20.8400000  
H 21.5690000    9.7910000   17.7430000  
H 22.3540000   14.6990000   15.0230000  
H 20.2580000   16.1940000   17.3890000  
H 22.3630000   11.4990000   15.9320000  
