78
110 
C 19.0570000    9.3510000   23.4500000  
C 18.6030000    8.4750000   22.4790000  
C 18.3220000    8.9420000   21.1740000  
C 18.2980000   10.2680000   20.9700000  
C 18.4190000   11.2290000   21.9740000  
C 18.8460000   10.7310000   23.2250000  
C 17.8190000    8.3530000   19.9610000  
C 17.4220000    9.4030000   19.1280000  
N 17.7050000   10.6090000   19.7920000  
O 16.5940000    8.0420000   17.3610000  
C 16.8350000    9.3200000   17.7890000  
O 16.6330000   10.2710000   17.0770000  
O 19.0850000   11.5480000   24.2440000  
O 19.4800000    8.8460000   24.6430000  
H 18.6640000    7.4050000   22.7300000  
H 17.9160000    7.2700000   19.7130000  
H 16.8410000    7.4790000   18.0690000  
H 17.7150000   11.4910000   19.4160000  
H 19.0960000   12.4780000   23.8840000  
H 19.8020000    9.6580000   25.2120000  
C 18.1720000   12.7080000   21.7090000  
C 17.3950000   13.5040000   22.6340000  
C 17.1330000   14.8560000   22.4740000  
C 17.7250000   15.6210000   21.4920000  
C 18.6550000   14.9020000   20.6310000  
C 18.8630000   13.4930000   20.7270000  
C 16.4760000   13.0890000   23.6760000  
C 15.8300000   14.2160000   24.1770000  
N 16.1700000   15.2780000   23.3400000  
O 14.6140000   13.1970000   25.8290000  
C 14.8880000   14.3590000   25.2520000  
O 14.2740000   15.3750000   25.4500000  
O 19.3510000   15.5440000   19.5910000  
O 19.8580000   12.9640000   19.9330000  
H 16.3280000   12.0160000   23.9690000  
H 15.1470000   12.5510000   25.5060000  
H 15.8420000   16.2130000   23.4250000  
H 19.9100000   16.2720000   19.8890000  
H 20.3100000   13.6200000   19.4680000  
C 17.4200000   17.0990000   21.3650000  
C 17.8420000   18.0690000   22.3300000  
C 17.4590000   19.3640000   22.1810000  
C 16.6320000   19.8620000   21.2020000  
C 16.1170000   18.9580000   20.2880000  
C 16.6410000   17.6400000   20.2790000  
C 18.5300000   18.0740000   23.6120000  
C 18.6390000   19.3930000   24.0790000  
N 17.8930000   20.1970000   23.1400000  
O 19.6590000   18.9710000   26.2050000  
C 19.2020000   19.9350000   25.3810000  
O 19.2500000   21.1160000   25.6410000  
O 15.3210000   19.4690000   19.3130000  
O 16.2160000   16.8160000   19.2220000  
H 18.8360000   17.1780000   24.2580000  
H 19.3890000   18.1760000   25.7520000  
H 17.6240000   21.1740000   23.3190000  
H 15.3780000   20.4620000   19.1890000  
H 16.7360000   16.0160000   19.3370000  
C 16.1440000   21.2850000   21.2780000  
C 17.0150000   22.3790000   21.3160000  
C 16.5760000   23.6460000   21.4880000  
C 15.2340000   23.9960000   21.5770000  
C 14.3420000   22.9920000   21.4930000  
C 14.7590000   21.6920000   21.3810000  
C 18.4600000   22.4150000   21.3230000  
C 18.8420000   23.7150000   21.4700000  
N 17.6300000   24.4880000   21.6600000  
O 21.1450000   23.4370000   20.8520000  
C 20.2230000   24.2570000   21.3720000  
O 20.5250000   25.3290000   21.7730000  
O 12.9760000   23.1810000   21.6300000  
O 13.7960000   20.6950000   21.3560000  
H 19.1410000   21.6340000   20.9670000  
H 20.6900000   22.6350000   20.5690000  
H 17.5700000   25.4620000   21.9020000  
H 12.5440000   22.5960000   20.9440000  
H 14.0990000   19.7620000   21.2170000  
H 15.0050000   25.0650000   21.6340000  
