78
110 
C 17.7900000   11.5230000   27.0420000  
C 18.6710000   10.4550000   26.7760000  
C 19.4520000   10.4670000   25.6400000  
C 19.2310000   11.5130000   24.7210000  
C 18.2480000   12.4980000   24.8120000  
C 17.5700000   12.5400000   26.0740000  
C 20.5550000    9.6860000   25.1360000  
C 20.9070000   10.3010000   23.9070000  
N 20.1440000   11.4490000   23.6890000  
O 22.7320000    8.7180000   23.5870000  
C 22.0660000    9.7810000   23.1110000  
O 22.4420000   10.2250000   22.0530000  
O 16.5580000   13.5000000   26.2870000  
O 17.2000000   11.6490000   28.2600000  
H 18.7660000    9.6620000   27.5770000  
H 21.0600000    8.8650000   25.6340000  
H 22.2390000    8.6000000   24.4120000  
H 20.2410000   12.0690000   22.8790000  
H 16.5020000   14.1990000   25.5890000  
H 16.4000000   12.2400000   28.0950000  
C 18.1490000   13.6140000   23.8570000  
C 17.3250000   13.5340000   22.7430000  
C 17.1750000   14.5930000   21.8850000  
C 17.8530000   15.8120000   21.9920000  
C 18.8950000   15.8130000   23.0210000  
C 18.9840000   14.7680000   23.9750000  
C 16.4840000   12.4560000   22.2190000  
C 15.9670000   12.9590000   21.0410000  
N 16.3720000   14.2930000   20.8570000  
O 14.8190000   11.0040000   20.4380000  
C 15.0040000   12.3150000   20.1730000  
O 14.3930000   12.8230000   19.2350000  
O 19.5250000   17.0180000   23.2300000  
O 19.8410000   14.9340000   24.9890000  
H 16.1660000   11.5950000   22.8110000  
H 15.4540000   10.5880000   21.1680000  
H 15.9970000   14.9160000   20.1950000  
H 19.0020000   17.7080000   22.8760000  
H 20.0270000   15.8540000   25.2380000  
C 17.4880000   16.9850000   21.1110000  
C 16.3400000   17.7240000   21.3400000  
C 15.9160000   18.8160000   20.5780000  
C 16.6800000   19.2200000   19.5040000  
C 17.8260000   18.4530000   19.1760000  
C 18.2300000   17.3410000   19.9890000  
C 15.4780000   17.7770000   22.4940000  
C 14.7290000   18.9100000   22.4360000  
N 15.0060000   19.5600000   21.2340000  
O 13.3450000   18.4930000   24.3590000  
C 13.6390000   19.3170000   23.3540000  
O 13.0700000   20.4250000   23.2970000  
O 18.6080000   18.7970000   18.1740000  
O 19.4430000   16.7100000   19.7330000  
H 15.2140000   17.0210000   23.2680000  
H 13.8070000   17.7060000   24.1510000  
H 14.6370000   20.4760000   20.9200000  
H 18.1630000   19.6330000   17.8940000  
H 19.9270000   17.2230000   19.0740000  
C 16.3820000   20.5230000   18.8380000  
C 16.9220000   21.7230000   19.3340000  
C 16.5300000   22.9210000   18.7500000  
C 15.8610000   23.0070000   17.5700000  
C 15.5440000   21.7940000   16.9480000  
C 15.6750000   20.5640000   17.6010000  
C 17.7940000   22.0100000   20.4160000  
C 17.9370000   23.4020000   20.3820000  
N 17.1230000   23.9790000   19.4210000  
O 19.3150000   23.4250000   22.3100000  
C 18.6160000   24.1830000   21.3540000  
O 18.6660000   25.4180000   21.4750000  
O 15.0400000   21.7740000   15.6600000  
O 15.1570000   19.4900000   16.9550000  
H 18.4290000   21.3930000   21.0350000  
H 19.2240000   22.4410000   22.1890000  
H 17.0870000   24.9140000   19.1360000  
H 14.9040000   20.7800000   15.5380000  
H 15.3250000   18.7360000   17.4800000  
H 15.6100000   23.9390000   17.0480000  
