78
110 
C 15.2940000   20.2200000   27.7100000  
C 14.0650000   20.7720000   27.4900000  
C 13.3960000   20.5400000   26.3400000  
C 13.9510000   19.7980000   25.3800000  
C 15.2100000   19.0990000   25.5340000  
C 15.9150000   19.3650000   26.7300000  
C 12.0740000   20.9420000   25.9050000  
C 11.8110000   20.1500000   24.8880000  
N 13.0140000   19.5000000   24.4400000  
O  9.4690000   20.4730000   24.9070000  
C 10.4910000   19.9550000   24.2520000  
O 10.2540000   19.4870000   23.1780000  
O 17.2230000   18.9240000   26.8690000  
O 16.0500000   20.7930000   28.7280000  
H 13.7160000   21.4860000   28.2440000  
H 11.3370000   21.5620000   26.4000000  
H  9.8290000   20.7110000   25.8090000  
H 13.0450000   18.8040000   23.7220000  
H 17.3700000   18.4110000   26.0720000  
H 16.7380000   20.1750000   28.9730000  
C 15.7130000   18.2570000   24.4310000  
C 16.1970000   18.9040000   23.2980000  
C 16.7250000   18.2180000   22.2740000  
C 16.8170000   16.7730000   22.1980000  
C 16.3250000   16.1010000   23.3380000  
C 15.7900000   16.8270000   24.3830000  
C 16.1370000   20.2450000   22.7790000  
C 16.6350000   20.2730000   21.4730000  
N 17.1930000   18.9770000   21.3010000  
O 15.9950000   22.5070000   20.7520000  
C 16.6260000   21.3550000   20.4340000  
O 17.1970000   21.2480000   19.3460000  
O 16.4200000   14.7990000   23.4250000  
O 15.2870000   16.0900000   25.4460000  
H 15.7530000   21.1000000   23.2640000  
H 15.5560000   22.2480000   21.6130000  
H 17.6270000   18.5950000   20.4890000  
H 17.1990000   14.3980000   22.8280000  
H 15.5080000   15.0980000   25.3240000  
C 17.6330000   16.0460000   21.1630000  
C 19.0470000   16.1670000   21.1830000  
C 19.7720000   15.4220000   20.2970000  
C 19.2520000   14.4630000   19.4280000  
C 17.8320000   14.4130000   19.3010000  
C 17.0230000   15.2130000   20.1450000  
C 19.9480000   16.7910000   22.1240000  
C 21.2200000   16.4220000   21.7170000  
N 21.1250000   15.5680000   20.5760000  
O 22.4730000   17.8550000   23.2150000  
C 22.5050000   16.8410000   22.3540000  
O 23.5270000   16.2510000   22.0980000  
O 17.2320000   13.5570000   18.4510000  
O 15.6800000   15.1380000   19.9790000  
H 19.7150000   17.5390000   22.8850000  
H 21.5350000   18.1110000   23.3810000  
H 21.9490000   15.1430000   20.1140000  
H 17.8720000   12.9410000   18.0470000  
H 15.4890000   14.5420000   19.1800000  
C 20.1650000   13.6440000   18.6010000  
C 19.9980000   12.2410000   18.6330000  
C 20.7510000   11.4920000   17.7590000  
C 21.7290000   11.9740000   16.9040000  
C 21.8630000   13.3600000   16.7930000  
C 21.0680000   14.1570000   17.6690000  
C 19.2350000   11.3550000   19.4800000  
C 19.5880000   10.0270000   19.0940000  
N 20.3980000   10.1360000   17.9370000  
O 18.2810000    8.8600000   20.7050000  
C 19.0880000    8.7930000   19.6660000  
O 19.4100000    7.7620000   19.1330000  
O 22.5760000   13.9140000   15.7460000  
O 21.2020000   15.5180000   17.4620000  
H 18.5940000   11.6110000   20.2240000  
H 18.3940000    9.8190000   21.0050000  
H 20.9350000    9.3390000   17.6230000  
H 22.4520000   14.8400000   15.8070000  
H 20.3300000   15.9760000   17.7090000  
H 22.3080000   11.3220000   16.2390000  
