78
110 
C 16.5390000   13.4960000   28.2750000  
C 17.7090000   13.5170000   29.0680000  
C 18.7940000   14.2910000   28.6430000  
C 18.8330000   14.7210000   27.3350000  
C 17.6960000   14.8630000   26.5380000  
C 16.5530000   14.1610000   27.0010000  
C 20.2150000   14.3260000   29.1250000  
C 20.9490000   14.9010000   28.0890000  
N 20.0460000   15.1380000   26.9940000  
O 23.1540000   15.0430000   29.1890000  
C 22.4200000   15.2130000   28.0680000  
O 22.9700000   15.5320000   27.0100000  
O 15.3760000   14.0840000   26.2680000  
O 15.4160000   12.8700000   28.7630000  
H 17.6540000   12.9640000   29.9580000  
H 20.5750000   13.9160000   30.0770000  
H 22.4800000   14.8290000   29.8800000  
H 20.3170000   15.4520000   26.1170000  
H 15.6050000   14.1780000   25.3490000  
H 14.7120000   13.3440000   28.3260000  
C 17.8320000   15.3650000   25.1320000  
C 17.5570000   14.5070000   24.0390000  
C 17.5420000   14.9950000   22.7700000  
C 18.0230000   16.2550000   22.4380000  
C 18.3500000   17.1380000   23.5300000  
C 18.1830000   16.6580000   24.8110000  
C 17.2860000   13.1450000   23.9180000  
C 16.9680000   12.8760000   22.5930000  
N 17.2760000   14.0080000   21.8340000  
O 16.8010000   10.5910000   22.9930000  
C 16.7800000   11.5170000   22.0300000  
O 16.6820000   11.1720000   20.9100000  
O 18.6960000   18.4230000   23.3380000  
O 18.4060000   17.4780000   25.8910000  
H 17.1830000   12.5190000   24.8010000  
H 16.9930000   11.0650000   23.8170000  
H 17.3770000   14.0690000   20.8240000  
H 18.8670000   18.4300000   22.3860000  
H 18.0270000   17.0300000   26.6720000  
C 17.9600000   16.6640000   20.9740000  
C 16.7150000   16.5780000   20.3420000  
C 16.5920000   16.9570000   19.0660000  
C 17.6500000   17.4700000   18.3000000  
C 18.9230000   17.6130000   18.8850000  
C 19.1060000   17.2130000   20.1920000  
C 15.4030000   16.3340000   20.8490000  
C 14.4970000   16.5830000   19.8040000  
N 15.2370000   16.8910000   18.6700000  
O 12.6070000   16.2830000   21.1430000  
C 13.0530000   16.6210000   19.9520000  
O 12.2580000   16.9430000   19.1040000  
O 19.9160000   18.3120000   18.1590000  
O 20.3390000   17.1840000   20.7290000  
H 15.0780000   15.9220000   21.8170000  
H 13.3670000   16.2000000   21.6940000  
H 14.8860000   17.2630000   17.7870000  
H 19.4680000   18.7250000   17.4250000  
H 20.9150000   17.1700000   19.9660000  
C 17.3530000   18.0700000   16.9770000  
C 16.9010000   19.4380000   17.0450000  
C 16.3910000   20.1380000   15.9490000  
C 16.4530000   19.5560000   14.6720000  
C 16.8260000   18.1870000   14.5680000  
C 17.1780000   17.4270000   15.7190000  
C 16.7870000   20.3680000   18.1950000  
C 16.3590000   21.5940000   17.6680000  
N 16.1150000   21.4160000   16.3010000  
O 16.7310000   22.7930000   19.6590000  
C 16.2970000   22.8890000   18.3650000  
O 15.8630000   23.9180000   17.9060000  
O 16.7540000   17.5170000   13.3310000  
O 17.5480000   16.1390000   15.5880000  
H 17.0730000   20.1640000   19.2040000  
H 16.9310000   21.8810000   19.8110000  
H 15.9040000   22.1310000   15.6690000  
H 17.2150000   16.7130000   13.5620000  
H 17.9570000   15.8520000   16.4270000  
H 16.2500000   20.1180000   13.7930000  
