78
110 
C 17.0900000   10.9230000   27.0120000  
C 18.3620000   10.3060000   26.8940000  
C 19.3490000   11.0100000   26.2420000  
C 19.0650000   12.2360000   25.6980000  
C 17.7410000   12.7180000   25.4840000  
C 16.7630000   12.0500000   26.2090000  
C 20.7200000   10.6620000   25.9810000  
C 21.2420000   11.6820000   25.2280000  
N 20.1910000   12.6600000   24.9870000  
O 23.4150000   10.6720000   24.8860000  
C 22.6040000   11.7160000   24.6550000  
O 23.0150000   12.6750000   23.9580000  
O 15.4680000   12.4400000   25.9540000  
O 16.0970000   10.2620000   27.6900000  
H 18.5720000    9.3930000   27.4320000  
H 21.2430000    9.7600000   26.3710000  
H 22.8340000    9.9660000   25.2370000  
H 20.2110000   13.4540000   24.3740000  
H 15.5180000   13.0700000   25.2560000  
H 15.2880000   10.4030000   27.1340000  
C 17.4090000   13.8500000   24.5930000  
C 17.1730000   13.5650000   23.2590000  
C 17.1260000   14.5210000   22.3210000  
C 17.4060000   15.8790000   22.5530000  
C 17.5830000   16.2490000   23.9190000  
C 17.6340000   15.2350000   24.9430000  
C 16.9960000   12.3080000   22.6080000  
C 17.0240000   12.5300000   21.2190000  
N 17.1440000   13.9240000   21.0570000  
O 16.9610000   10.2860000   20.4070000  
C 17.1300000   11.5610000   20.1400000  
O 17.4640000   11.8550000   19.0260000  
O 17.8200000   17.5790000   24.2600000  
O 17.7900000   15.5870000   26.2930000  
H 17.0590000   11.3040000   23.0750000  
H 16.6950000   10.2620000   21.4110000  
H 17.5590000   14.2730000   20.2190000  
H 17.5660000   18.0730000   23.5270000  
H 18.3260000   16.3880000   26.3760000  
C 17.2710000   16.8990000   21.4590000  
C 16.3040000   17.8840000   21.5860000  
C 16.2250000   18.7960000   20.5160000  
C 16.9910000   18.8750000   19.3710000  
C 17.9490000   17.8570000   19.2370000  
C 18.1090000   16.9250000   20.3140000  
C 15.3580000   18.3510000   22.5750000  
C 14.8580000   19.5660000   22.0690000  
N 15.4280000   19.8130000   20.8110000  
O 13.4670000   20.0600000   23.9020000  
C 13.8830000   20.4580000   22.6720000  
O 13.5030000   21.4900000   22.1670000  
O 18.8530000   17.7230000   18.1200000  
O 19.0920000   15.9300000   20.1730000  
H 15.1610000   17.7590000   23.4810000  
H 13.9960000   19.2790000   24.0950000  
H 15.2040000   20.5360000   20.1990000  
H 18.3560000   18.3730000   17.5550000  
H 19.7350000   16.1570000   19.4730000  
C 16.7700000   19.7970000   18.2360000  
C 16.9220000   21.2060000   18.4340000  
C 16.5820000   22.1180000   17.5160000  
C 16.0420000   21.7300000   16.2880000  
C 15.7540000   20.4040000   16.0200000  
C 16.0770000   19.4220000   17.0350000  
C 17.5540000   21.9520000   19.5090000  
C 17.5480000   23.2860000   19.1720000  
N 16.7830000   23.3950000   17.9590000  
O 18.7460000   24.1230000   21.0390000  
C 18.1230000   24.4540000   19.9570000  
O 17.8230000   25.6210000   19.7540000  
O 15.1510000   20.0540000   14.7990000  
O 15.6750000   18.0780000   16.8550000  
H 17.9340000   21.5310000   20.4220000  
H 18.3560000   23.2590000   21.0480000  
H 16.6800000   24.2880000   17.4750000  
H 14.8830000   19.1010000   14.8260000  
H 15.8150000   17.6100000   17.6990000  
H 15.7170000   22.4770000   15.6350000  
