78
110 
C 12.8560000   17.6050000   15.8920000  
C 11.9030000   16.5280000   15.9850000  
C 11.9790000   15.6020000   17.0360000  
C 12.9540000   15.8020000   17.9810000  
C 13.9030000   16.8150000   18.0170000  
C 13.8400000   17.7060000   16.8950000  
C 11.0330000   14.5990000   17.5190000  
C 11.5560000   14.2860000   18.7910000  
N 12.7500000   14.9270000   18.9880000  
O  9.7690000   12.6720000   19.1830000  
C 10.8350000   13.3130000   19.7340000  
O 11.0930000   13.1260000   20.9110000  
O 14.8310000   18.6120000   16.6920000  
O 12.8050000   18.5280000   14.8870000  
H 11.0520000   16.4050000   15.3350000  
H  9.9640000   14.4140000   17.1790000  
H  9.6660000   12.9760000   18.2710000  
H 13.1740000   15.0820000   19.8950000  
H 15.6270000   18.1670000   17.0960000  
H 13.5060000   19.2240000   15.0150000  
C 14.9450000   16.9680000   19.1140000  
C 15.8900000   15.9250000   19.3910000  
C 16.6110000   15.9210000   20.5020000  
C 16.7380000   17.0350000   21.3620000  
C 15.8330000   18.0880000   21.1050000  
C 14.9020000   18.0610000   20.0480000  
C 16.1870000   14.6850000   18.7210000  
C 17.2520000   14.0890000   19.4110000  
N 17.4650000   14.8400000   20.6070000  
O 17.6160000   12.2740000   17.9220000  
C 17.8030000   12.7730000   19.1610000  
O 18.6040000   12.1840000   19.8600000  
O 15.7160000   19.2270000   21.8810000  
O 14.0160000   19.0700000   19.7960000  
H 15.6050000   14.2880000   17.8690000  
H 17.0040000   12.8100000   17.4680000  
H 18.1110000   14.6550000   21.3600000  
H 16.2230000   19.1480000   22.6960000  
H 13.3000000   18.6810000   19.2230000  
C 17.5880000   16.9510000   22.5310000  
C 18.9510000   16.8710000   22.4140000  
C 19.7020000   16.6520000   23.5040000  
C 19.1850000   16.6420000   24.8230000  
C 17.8150000   16.8800000   25.0080000  
C 16.9720000   17.0240000   23.8180000  
C 19.8420000   17.0020000   21.2560000  
C 21.1060000   16.7950000   21.7700000  
N 21.0110000   16.5840000   23.0970000  
O 22.2210000   17.0540000   19.7080000  
C 22.3500000   16.7720000   20.9880000  
O 23.4250000   16.5170000   21.4970000  
O 17.3210000   16.9340000   26.2430000  
O 15.6030000   17.0250000   24.0400000  
H 19.5790000   17.1750000   20.2300000  
H 21.3210000   17.3570000   19.5820000  
H 21.8090000   16.2620000   23.6130000  
H 18.0590000   16.7370000   26.8720000  
H 15.0880000   17.0590000   23.2460000  
C 20.1010000   16.5000000   26.0220000  
C 21.0290000   17.5030000   26.3740000  
C 21.9050000   17.3110000   27.4070000  
C 21.8960000   16.2090000   28.2120000  
C 20.8920000   15.2200000   27.9030000  
C 20.0620000   15.3230000   26.7790000  
C 21.3470000   18.8000000   25.8770000  
C 22.4130000   19.3950000   26.5630000  
N 22.8000000   18.3630000   27.4930000  
O 22.3090000   21.5170000   25.4310000  
C 22.9860000   20.7910000   26.3660000  
O 23.9460000   21.3040000   26.9490000  
O 20.8100000   14.1240000   28.6390000  
O 19.4010000   14.2080000   26.3090000  
H 20.9350000   19.1960000   24.9160000  
H 21.3960000   21.1540000   25.3070000  
H 23.5500000   18.3600000   28.2190000  
H 19.9320000   13.6660000   28.4630000  
H 19.0370000   14.2690000   25.4180000  
H 22.6530000   16.1010000   29.0410000  
