78
110 
C 14.4100000   18.9720000   28.7160000  
C 13.4880000   19.9000000   28.2340000  
C 13.5130000   20.1930000   26.8250000  
C 14.3990000   19.5920000   25.9800000  
C 15.2670000   18.5200000   26.3960000  
C 15.2500000   18.2270000   27.7940000  
C 12.6310000   20.9970000   26.0130000  
C 12.8570000   20.6220000   24.6790000  
N 14.0200000   19.7740000   24.6800000  
O 11.5550000   22.4580000   23.8780000  
C 12.2410000   21.2920000   23.5220000  
O 12.3460000   20.9910000   22.3830000  
O 16.1360000   17.2980000   28.3840000  
O 14.5970000   18.6970000   29.9900000  
H 12.9010000   20.4670000   28.9060000  
H 11.8420000   21.6510000   26.4520000  
H 11.6580000   22.5770000   24.8450000  
H 14.5350000   19.3940000   23.8900000  
H 16.6270000   16.7980000   27.6890000  
H 14.8570000   17.7740000   30.0610000  
C 16.0090000   17.7210000   25.3680000  
C 16.7400000   18.4200000   24.3840000  
C 17.2910000   17.7460000   23.3090000  
C 17.1970000   16.3890000   22.9900000  
C 16.4550000   15.7330000   23.9940000  
C 15.9760000   16.3750000   25.1880000  
C 17.0420000   19.8310000   24.1250000  
C 17.7520000   19.9330000   22.9290000  
N 17.9570000   18.6370000   22.4360000  
O 17.6520000   22.3120000   22.6160000  
C 18.1490000   21.1340000   22.1080000  
O 18.7370000   21.0690000   21.0550000  
O 16.1490000   14.3930000   23.7970000  
O 15.3070000   15.5330000   26.0130000  
H 16.6180000   20.6900000   24.7330000  
H 17.0420000   22.1170000   23.4080000  
H 18.5640000   18.4150000   21.6690000  
H 16.0680000   14.3420000   22.8050000  
H 15.3550000   14.6220000   25.6730000  
C 17.7200000   15.7290000   21.7600000  
C 19.1230000   15.6260000   21.4390000  
C 19.5270000   15.1770000   20.2280000  
C 18.6490000   14.6590000   19.1890000  
C 17.2670000   14.6560000   19.5190000  
C 16.8680000   15.1720000   20.7820000  
C 20.2870000   16.1030000   22.1080000  
C 21.3700000   15.8130000   21.2590000  
N 20.8790000   15.3880000   20.0600000  
O 23.0840000   16.6790000   22.7220000  
C 22.7840000   16.1290000   21.5410000  
O 23.6610000   15.9120000   20.7360000  
O 16.3740000   14.1460000   18.6600000  
O 15.5230000   15.0960000   21.0280000  
H 20.3270000   16.4280000   23.1790000  
H 22.2120000   16.8920000   23.1230000  
H 21.4570000   15.3210000   19.2160000  
H 16.8460000   13.8460000   17.8940000  
H 15.1930000   14.4940000   20.2740000  
C 19.1960000   14.2150000   17.8620000  
C 19.0730000   12.8510000   17.4190000  
C 19.5740000   12.4650000   16.1860000  
C 19.9930000   13.3480000   15.2120000  
C 20.1720000   14.6750000   15.6100000  
C 19.7610000   15.1530000   16.9080000  
C 18.5750000   11.6880000   18.0540000  
C 18.9940000   10.6260000   17.3010000  
N 19.4400000   11.0930000   16.0680000  
O 18.7810000    8.9620000   19.0420000  
C 19.1130000    9.2010000   17.7230000  
O 19.3650000    8.2830000   16.9370000  
O 20.5070000   15.5670000   14.6400000  
O 19.9060000   16.4530000   17.3100000  
H 18.2110000   11.6190000   18.9980000  
H 18.6430000    9.8680000   19.4440000  
H 19.8640000   10.5780000   15.3440000  
H 20.5890000   16.5000000   14.9600000  
H 19.4310000   16.3930000   18.2480000  
H 20.2670000   13.0610000   14.2220000  
