78
110 
C 17.0280000    9.1870000   20.2480000  
C 16.7430000    9.0570000   18.9110000  
C 16.8170000   10.2740000   18.1850000  
C 17.1530000   11.4870000   18.8230000  
C 17.5390000   11.5970000   20.1890000  
C 17.4210000   10.3750000   20.9080000  
C 16.2410000   10.6210000   16.8930000  
C 16.4400000   11.9810000   16.7560000  
N 17.0390000   12.5500000   17.9250000  
O 15.8140000   12.1770000   14.4130000  
C 16.2820000   12.7840000   15.4750000  
O 16.6470000   13.9410000   15.4910000  
O 17.4910000   10.2990000   22.2760000  
O 16.8730000    8.0860000   21.0760000  
H 16.2650000    8.2200000   18.4650000  
H 15.8120000    9.9470000   16.1220000  
H 15.4920000   11.3210000   14.6430000  
H 17.3270000   13.5100000   18.0800000  
H 17.5740000   11.1870000   22.7310000  
H 16.9150000    8.3960000   22.0450000  
C 17.6830000   12.8700000   20.9450000  
C 16.7120000   13.2420000   21.9680000  
C 16.7240000   14.4570000   22.4890000  
C 17.6760000   15.4760000   22.0530000  
C 18.6790000   15.0750000   21.1600000  
C 18.6470000   13.8440000   20.5410000  
C 15.4800000   12.5930000   22.4640000  
C 14.9850000   13.3730000   23.5040000  
N 15.7380000   14.5970000   23.4870000  
O 13.0260000   12.1560000   24.0420000  
C 13.8420000   13.1150000   24.4440000  
O 13.5150000   13.8630000   25.3570000  
O 19.5270000   15.9750000   20.6620000  
O 19.5750000   13.4190000   19.7150000  
H 15.0280000   11.6660000   22.1090000  
H 13.4700000   11.7570000   23.2650000  
H 15.6920000   15.3770000   24.1770000  
H 19.5990000   16.7500000   21.2490000  
H 19.4780000   12.5080000   19.4660000  
C 17.5550000   16.8560000   22.5860000  
C 18.4920000   17.4100000   23.4580000  
C 18.4410000   18.7810000   23.7410000  
C 17.4500000   19.6650000   23.4270000  
C 16.5340000   19.1920000   22.5000000  
C 16.6220000   17.8020000   21.9980000  
C 19.6770000   16.9050000   24.0870000  
C 20.3040000   17.9370000   24.7170000  
N 19.5820000   19.0930000   24.4610000  
O 22.1280000   16.6760000   25.6070000  
C 21.6130000   17.9320000   25.3810000  
O 22.2160000   18.9430000   25.6970000  
O 15.6260000   20.0660000   22.0380000  
O 15.6900000   17.4570000   20.9920000  
H 20.0530000   15.8870000   23.9530000  
H 21.3730000   16.0880000   25.4360000  
H 19.8230000   20.0120000   24.8580000  
H 15.6650000   20.9230000   22.4010000  
H 15.7580000   16.5200000   20.7260000  
C 17.3240000   21.0110000   23.8940000  
C 17.8550000   22.0800000   23.1560000  
C 17.5690000   23.4240000   23.4690000  
C 16.7620000   23.7950000   24.5160000  
C 16.3110000   22.7670000   25.3500000  
C 16.4460000   21.3970000   24.9440000  
C 18.7180000   22.1200000   22.0020000  
C 18.7850000   23.4260000   21.5940000  
N 18.1060000   24.2530000   22.5560000  
O 19.8660000   23.0080000   19.5910000  
C 19.4750000   23.9640000   20.3910000  
O 19.5840000   25.1440000   20.1620000  
O 15.5400000   23.0520000   26.4470000  
O 15.6560000   20.4580000   25.4950000  
H 19.3010000   21.3760000   21.5410000  
H 19.5300000   22.1060000   19.9980000  
H 17.9380000   25.2590000   22.5300000  
H 15.4730000   22.2150000   26.9430000  
H 15.3770000   19.8240000   24.7870000  
H 16.4820000   24.8330000   24.8500000  
