78
110 
C 14.3700000   16.4300000   15.1400000  
C 13.1070000   16.9690000   15.1030000  
C 12.6370000   17.4550000   16.2700000  
C 13.3460000   17.3410000   17.4320000  
C 14.6180000   16.7450000   17.5900000  
C 15.0900000   16.2180000   16.3760000  
C 11.2990000   17.9220000   16.5600000  
C 11.3010000   18.1750000   17.9800000  
N 12.5770000   17.8840000   18.4730000  
O  9.0280000   19.1240000   18.1400000  
C 10.2080000   18.7660000   18.8390000  
O 10.4130000   18.8940000   20.0440000  
O 16.2370000   15.5340000   16.3780000  
O 14.8480000   15.8770000   14.0270000  
H 12.6520000   17.1030000   14.1210000  
H 10.4520000   17.9270000   15.8750000  
H  9.2700000   19.0530000   17.2450000  
H 12.9020000   18.1300000   19.4130000  
H 16.2760000   15.2450000   17.2920000  
H 15.8060000   15.7840000   14.1890000  
C 15.3650000   16.5870000   18.9450000  
C 15.2330000   15.4370000   19.7820000  
C 15.9300000   15.4120000   20.9710000  
C 16.9190000   16.3560000   21.4450000  
C 16.9880000   17.5120000   20.5400000  
C 16.1400000   17.6680000   19.4520000  
C 14.3600000   14.2760000   19.8610000  
C 14.6320000   13.5930000   21.0510000  
N 15.6620000   14.2540000   21.6960000  
O 13.2210000   11.8370000   20.5350000  
C 13.9560000   12.3580000   21.4920000  
O 14.0910000   11.8220000   22.6110000  
O 17.8500000   18.5500000   20.8460000  
O 16.2000000   18.9240000   18.8680000  
H 13.7140000   14.0600000   19.0620000  
H 13.2880000   12.3430000   19.7950000  
H 16.2580000   13.7920000   22.3450000  
H 18.3590000   18.2270000   21.5580000  
H 16.9220000   19.4060000   19.2840000  
C 17.7470000   16.1520000   22.6360000  
C 19.1290000   16.0020000   22.4780000  
C 19.9910000   15.8600000   23.4940000  
C 19.6380000   15.9350000   24.8110000  
C 18.2390000   15.9790000   25.1150000  
C 17.3220000   16.0680000   23.9860000  
C 19.9790000   16.1110000   21.3010000  
C 21.3060000   16.0570000   21.7480000  
N 21.2730000   15.8380000   23.1150000  
O 22.3070000   16.7630000   19.7010000  
C 22.5390000   16.4220000   21.0080000  
O 23.6650000   16.4400000   21.4720000  
O 17.7140000   15.8090000   26.4080000  
O 15.9990000   16.0470000   24.2650000  
H 19.8110000   16.4050000   20.3340000  
H 21.3390000   16.7990000   19.8240000  
H 22.0750000   15.8660000   23.7390000  
H 18.4690000   15.5260000   27.0320000  
H 15.9430000   15.8870000   25.2280000  
C 20.5820000   15.7930000   25.9330000  
C 21.1630000   16.9790000   26.4320000  
C 22.1680000   16.9560000   27.3640000  
C 22.5920000   15.7830000   27.9670000  
C 21.9220000   14.5640000   27.5850000  
C 20.9860000   14.5580000   26.5240000  
C 21.0220000   18.3120000   26.0110000  
C 21.9460000   19.1000000   26.7090000  
N 22.6700000   18.2250000   27.6090000  
O 21.2870000   21.1120000   25.7810000  
C 22.1790000   20.5540000   26.6050000  
O 23.0260000   21.2050000   27.2050000  
O 22.2160000   13.4310000   28.2890000  
O 20.5120000   13.3740000   26.0040000  
H 20.3930000   18.6980000   25.1880000  
H 20.7530000   20.3520000   25.3730000  
H 23.5210000   18.5000000   28.0490000  
H 21.6920000   12.6880000   27.9250000  
H 19.6610000   13.4000000   25.6340000  
H 23.2940000   15.8130000   28.7990000  
