78
110 
C 18.6680000   14.2780000   29.1140000  
C 19.2630000   13.0260000   28.9590000  
C 19.4970000   12.5780000   27.6300000  
C 19.2470000   13.3950000   26.5740000  
C 18.6310000   14.5880000   26.6680000  
C 18.2660000   15.0690000   27.9820000  
C 19.9410000   11.2500000   27.1230000  
C 19.9600000   11.4490000   25.7380000  
N 19.5890000   12.7500000   25.3870000  
O 20.2300000    9.1440000   25.3940000  
C 20.0920000   10.3200000   24.7680000  
O 20.0320000   10.4140000   23.5410000  
O 17.5160000   16.1860000   28.1900000  
O 18.3160000   14.6820000   30.4100000  
H 19.4180000   12.3450000   29.7850000  
H 20.1460000   10.3380000   27.6520000  
H 20.2560000    9.3830000   26.3670000  
H 19.4290000   13.0460000   24.4120000  
H 17.3010000   16.4540000   27.2610000  
H 17.5070000   15.1370000   30.2990000  
C 18.3120000   15.3470000   25.4270000  
C 17.5180000   14.7960000   24.4520000  
C 17.4030000   15.5190000   23.3070000  
C 17.9850000   16.7510000   22.9900000  
C 18.7180000   17.3190000   24.0070000  
C 18.8430000   16.6810000   25.2610000  
C 16.8900000   13.4600000   24.2870000  
C 16.3160000   13.5030000   23.0350000  
N 16.6260000   14.7480000   22.4120000  
O 15.4440000   11.2890000   22.9000000  
C 15.5240000   12.4640000   22.2950000  
O 15.0090000   12.6100000   21.2230000  
O 19.4690000   18.4500000   23.6390000  
O 19.5690000   17.2570000   26.2450000  
H 16.6070000   12.7070000   25.0250000  
H 15.9550000   11.3150000   23.7030000  
H 16.3680000   15.0060000   21.3950000  
H 19.0810000   18.8960000   22.8860000  
H 19.8590000   16.5350000   26.9080000  
C 17.9250000   17.3090000   21.5710000  
C 16.6330000   17.6020000   21.0380000  
C 16.5510000   18.1160000   19.7770000  
C 17.6550000   18.2850000   18.8960000  
C 18.9110000   18.1290000   19.4280000  
C 19.0870000   17.6850000   20.7860000  
C 15.2480000   17.3330000   21.4190000  
C 14.4010000   17.6860000   20.3440000  
N 15.2090000   18.1850000   19.3260000  
O 12.3240000   16.6650000   21.0770000  
C 12.9630000   17.4390000   20.1320000  
O 12.4250000   17.8560000   19.1530000  
O 20.0760000   18.1610000   18.5880000  
O 20.3410000   17.4380000   21.2590000  
H 14.9800000   16.8880000   22.3760000  
H 12.9030000   16.3700000   21.7810000  
H 14.8530000   18.4630000   18.3560000  
H 19.8930000   18.6900000   17.7220000  
H 20.3150000   17.3270000   22.1870000  
C 17.4410000   18.8040000   17.5380000  
C 17.1430000   20.1710000   17.2620000  
C 16.6630000   20.4640000   16.0030000  
C 16.5680000   19.5470000   14.9420000  
C 16.9820000   18.2450000   15.1400000  
C 17.2910000   17.8820000   16.4790000  
C 16.9390000   21.3150000   18.1120000  
C 16.4460000   22.3610000   17.2710000  
N 16.2120000   21.8080000   15.9760000  
O 16.6960000   23.8700000   18.9650000  
C 16.2950000   23.7570000   17.6860000  
O 15.8590000   24.7730000   17.1050000  
O 16.8780000   17.2930000   14.1560000  
O 17.5060000   16.5560000   16.7130000  
H 17.2490000   21.3730000   19.1230000  
H 16.8990000   22.9450000   19.1490000  
H 16.1460000   22.3870000   15.1790000  
H 17.3520000   16.4690000   14.4330000  
H 17.4080000   16.3380000   17.6740000  
H 16.1210000   19.8830000   13.9860000  
