78
110 
C 19.2060000   10.0080000   25.9220000  
C 19.4170000    9.0970000   24.8750000  
C 19.2300000    9.4530000   23.5770000  
C 18.9210000   10.7660000   23.3040000  
C 18.8960000   11.8520000   24.2210000  
C 19.1190000   11.3980000   25.5630000  
C 19.2350000    8.7010000   22.3630000  
C 19.0010000    9.6500000   21.3700000  
N 18.7090000   10.8560000   21.9560000  
O 19.6170000    8.1220000   19.6520000  
C 19.2250000    9.3830000   19.9070000  
O 19.0730000   10.2170000   19.0330000  
O 19.0680000   12.3730000   26.5390000  
O 19.4740000    9.6980000   27.2110000  
H 19.7570000    8.0910000   25.0970000  
H 19.5570000    7.6970000   22.1540000  
H 19.5530000    7.6100000   20.4990000  
H 18.5590000   11.7180000   21.4470000  
H 19.0070000   13.2530000   26.0630000  
H 18.9940000   10.3560000   27.8180000  
C 18.6480000   13.2450000   23.7800000  
C 17.4450000   13.6320000   23.1650000  
C 17.2590000   14.8440000   22.6320000  
C 18.1950000   15.8520000   22.6170000  
C 19.4850000   15.5400000   23.1790000  
C 19.6470000   14.2400000   23.8090000  
C 16.2000000   12.8860000   23.0520000  
C 15.2530000   13.7280000   22.4540000  
N 15.9990000   14.8950000   22.0940000  
O 13.3590000   12.2870000   22.3650000  
C 13.8400000   13.4840000   22.1480000  
O 13.1530000   14.4080000   21.7500000  
O 20.4950000   16.5150000   23.2400000  
O 20.8530000   14.0050000   24.2640000  
H 15.9530000   11.8280000   23.3370000  
H 14.1760000   11.7110000   22.6180000  
H 15.5970000   15.6730000   21.5610000  
H 20.3990000   17.1960000   22.6130000  
H 21.3090000   14.8350000   24.3330000  
C 17.9840000   17.1360000   21.7970000  
C 16.8410000   17.9760000   22.0230000  
C 16.5800000   19.0670000   21.1810000  
C 17.4780000   19.5610000   20.1780000  
C 18.6160000   18.7510000   19.9670000  
C 18.8170000   17.5450000   20.7280000  
C 15.8320000   18.0210000   22.9950000  
C 15.0150000   19.1100000   22.7110000  
N 15.5210000   19.8660000   21.6320000  
O 13.5020000   18.9210000   24.5100000  
C 13.7750000   19.6080000   23.4170000  
O 13.1820000   20.5990000   23.0340000  
O 19.5500000   19.0450000   18.9980000  
O 19.9440000   16.8710000   20.4100000  
H 15.6490000   17.3380000   23.8160000  
H 14.2690000   18.3580000   24.5020000  
H 14.9540000   20.5200000   21.0640000  
H 19.4140000   19.8510000   18.4280000  
H 20.3780000   17.4040000   19.7320000  
C 17.1640000   20.8000000   19.3930000  
C 17.0370000   22.1270000   19.9420000  
C 16.6940000   23.1730000   19.1360000  
C 16.5250000   23.1310000   17.7320000  
C 16.6280000   21.8280000   17.1700000  
C 16.9590000   20.6970000   17.9410000  
C 17.1120000   22.6680000   21.2990000  
C 17.0350000   24.0550000   21.2190000  
N 16.6860000   24.3580000   19.8650000  
O 17.3920000   24.5650000   23.5650000  
C 16.9760000   25.0100000   22.3770000  
O 16.6090000   26.1740000   22.2850000  
O 16.4900000   21.6790000   15.8140000  
O 17.0690000   19.4470000   17.3970000  
H 17.4170000   22.0890000   22.1770000  
H 17.4700000   23.5750000   23.4460000  
H 16.4230000   25.2240000   19.4010000  
H 16.4620000   20.7050000   15.5670000  
H 17.2590000   18.7730000   18.1000000  
H 16.4400000   24.0070000   17.0890000  
