78
111 
C 19.0200000   12.8700000   27.9610000  
C 19.4120000   13.8090000   28.9930000  
C 19.0410000   15.1500000   28.8150000  
C 18.7190000   15.6010000   27.5650000  
C 18.4480000   14.8150000   26.4590000  
C 18.4920000   13.4040000   26.7170000  
C 19.1880000   16.3430000   29.6650000  
C 19.0730000   17.4690000   28.8490000  
N 18.6580000   17.0080000   27.5830000  
O 19.2740000   19.0440000   30.6060000  
C 19.1300000   18.9040000   29.3080000  
O 19.0410000   19.8350000   28.5570000  
O 18.3100000   12.5620000   25.6660000  
O 19.3410000   11.5390000   28.0720000  
H 19.7770000   13.3860000   29.9340000  
H 19.4870000   16.3240000   30.7400000  
H 19.1300000   18.1410000   30.9730000  
H 18.4330000   17.6330000   26.8340000  
H 18.3850000   13.0570000   24.8300000  
H 19.1950000   11.3190000   27.1160000  
C 18.0100000   15.3780000   25.1600000  
C 18.8020000   15.1520000   23.9240000  
C 18.4330000   15.6440000   22.7470000  
C 17.2090000   16.2690000   22.5090000  
C 16.3400000   16.3820000   23.6020000  
C 16.7380000   15.9600000   24.9120000  
C 20.0430000   14.4330000   23.7070000  
C 20.3450000   14.5270000   22.3800000  
N 19.2830000   15.2030000   21.7190000  
O 22.4810000   13.4560000   22.5840000  
C 21.6670000   14.1650000   21.7700000  
O 21.9030000   14.3290000   20.5680000  
O 15.1070000   16.8820000   23.4270000  
O 15.7910000   15.8760000   25.8960000  
H 20.6880000   14.0840000   24.5070000  
H 22.1640000   13.5500000   23.4820000  
H 19.2440000   15.3310000   20.7310000  
H 15.0390000   16.8560000   22.4480000  
H 15.0140000   16.3510000   25.5700000  
C 16.8910000   16.9760000   21.2390000  
C 15.7920000   16.6750000   20.3560000  
C 15.7790000   17.1380000   19.0910000  
C 16.6970000   18.0880000   18.6000000  
C 17.7540000   18.4900000   19.4290000  
C 17.8360000   17.8920000   20.7480000  
C 14.7450000   15.6940000   20.3930000  
C 14.1380000   15.6810000   19.1870000  
N 14.7900000   16.5770000   18.3390000  
O 12.9600000   13.6940000   19.4820000  
C 13.1980000   14.7100000   18.6670000  
O 12.7320000   14.8110000   17.5710000  
O 18.5080000   19.5670000   19.0330000  
O 18.7970000   18.4470000   21.5770000  
H 14.3410000   15.1400000   21.2170000  
H 13.4070000   13.9900000   20.2480000  
H 14.6800000   16.7720000   17.3330000  
H 18.8800000   20.0390000   19.8160000  
H 18.6700000   18.0750000   22.4410000  
C 16.4200000   18.6390000   17.2360000  
C 15.1530000   19.2470000   17.0180000  
C 14.8280000   19.8480000   15.7630000  
C 15.7250000   19.9790000   14.7010000  
C 16.9980000   19.3830000   14.8870000  
C 17.3450000   18.7690000   16.1010000  
C 13.9290000   19.4570000   17.8710000  
C 13.0440000   20.2820000   17.1150000  
N 13.5870000   20.4510000   15.8500000  
O 11.5550000   20.4260000   18.9510000  
C 11.7320000   20.7350000   17.6300000  
O 10.9280000   21.4300000   17.0070000  
O 17.7260000   19.3440000   13.7340000  
O 18.5800000   18.1850000   16.2310000  
H 13.9280000   19.3520000   18.8890000  
H 12.4870000   20.0590000   19.1780000  
H 13.1310000   20.9760000   15.0840000  
H 18.3890000   18.6440000   13.8720000  
H 18.9130000   18.4130000   17.1170000  
H 15.4850000   20.3810000   13.7220000  
