78
111 
C 18.0320000   15.6760000   29.1690000  
C 19.3860000   15.7680000   29.3980000  
C 20.2990000   16.1070000   28.3760000  
C 19.7400000   16.4200000   27.1560000  
C 18.3560000   16.1960000   26.8670000  
C 17.4930000   15.8140000   27.8770000  
C 21.7370000   16.3110000   28.2150000  
C 21.9210000   16.6870000   26.8510000  
N 20.6610000   16.6640000   26.1890000  
O 24.2070000   17.1950000   27.0540000  
C 23.1530000   17.1790000   26.2030000  
O 23.2000000   17.5250000   25.0180000  
O 16.1600000   15.6080000   27.6880000  
O 17.2280000   15.2500000   30.1630000  
H 19.6910000   15.4510000   30.3920000  
H 22.5070000   16.1040000   28.9870000  
H 23.7110000   17.2700000   27.9260000  
H 20.4710000   17.1760000   25.3420000  
H 15.9810000   15.6960000   26.7460000  
H 16.3270000   15.1790000   29.7340000  
C 17.9510000   16.3330000   25.4350000  
C 17.7270000   15.1760000   24.6630000  
C 17.0930000   15.2550000   23.4250000  
C 17.0010000   16.4890000   22.6950000  
C 17.4260000   17.6460000   23.3740000  
C 17.7860000   17.5800000   24.7680000  
C 17.9080000   13.7870000   24.8970000  
C 17.3750000   13.1140000   23.7540000  
N 16.8820000   14.0830000   22.8390000  
O 18.0460000   10.9000000   24.5240000  
C 17.3590000   11.5940000   23.6280000  
O 16.8170000   10.9670000   22.7270000  
O 17.5950000   18.8270000   22.7410000  
O 18.1320000   18.7890000   25.4140000  
H 18.3740000   13.3320000   25.8180000  
H 18.4130000   11.6450000   25.0070000  
H 16.3160000   13.9160000   22.0120000  
H 17.1220000   18.8240000   21.8240000  
H 17.9620000   19.4790000   24.7050000  
C 16.5510000   16.5730000   21.2270000  
C 15.4530000   17.3670000   20.8520000  
C 15.0340000   17.3100000   19.5300000  
C 15.7420000   16.7220000   18.4680000  
C 16.8460000   15.9790000   18.8550000  
C 17.2670000   15.9760000   20.2120000  
C 14.5710000   18.1780000   21.5370000  
C 13.6340000   18.5820000   20.6410000  
N 13.9480000   18.1050000   19.3180000  
O 12.4420000   20.0150000   22.1520000  
C 12.4720000   19.4530000   20.9330000  
O 11.5850000   19.7410000   20.1470000  
O 17.5320000   15.3470000   17.8500000  
O 18.5120000   15.4830000   20.5140000  
H 14.5470000   18.3470000   22.5350000  
H 13.1390000   19.5090000   22.6550000  
H 13.5830000   18.4410000   18.4260000  
H 18.4300000   15.0920000   18.1400000  
H 18.5100000   15.4870000   21.4630000  
C 15.4340000   16.8940000   16.9870000  
C 15.7480000   18.1190000   16.3770000  
C 15.3200000   18.3640000   15.1130000  
C 14.4970000   17.5080000   14.3490000  
C 14.0620000   16.3240000   14.9700000  
C 14.6110000   16.0220000   16.2500000  
C 16.5240000   19.2870000   16.7720000  
C 16.4950000   20.1990000   15.7130000  
N 15.7820000   19.6160000   14.6710000  
O 17.5710000   21.9010000   16.9020000  
C 16.9880000   21.5620000   15.7470000  
O 16.8270000   22.4110000   14.8750000  
O 13.0320000   15.5060000   14.4560000  
O 14.2900000   14.8690000   16.9390000  
H 16.8270000   19.4220000   17.7520000  
H 17.6240000   21.2000000   17.5940000  
H 15.6700000   20.0670000   13.7390000  
H 12.8870000   14.7040000   15.0480000  
H 14.5790000   14.9180000   17.8010000  
H 14.1260000   17.7640000   13.3240000  
