78
111 
C 18.1470000   13.0980000   27.9570000  
C 18.2930000   13.9870000   29.0560000  
C 18.1900000   15.3520000   28.8480000  
C 18.0120000   15.8470000   27.5770000  
C 17.8880000   15.0050000   26.5030000  
C 17.9540000   13.6300000   26.6530000  
C 18.4030000   16.5410000   29.7070000  
C 18.2120000   17.6410000   28.8400000  
N 18.1630000   17.2000000   27.5010000  
O 18.4250000   19.3820000   30.4930000  
C 18.2900000   19.0960000   29.1760000  
O 18.3680000   19.9210000   28.2640000  
O 17.9230000   12.8600000   25.5830000  
O 18.4330000   11.7620000   28.0740000  
H 18.6160000   13.6440000   30.0600000  
H 18.6330000   16.5060000   30.7850000  
H 18.5090000   18.4970000   30.9440000  
H 18.0640000   17.8540000   26.7740000  
H 17.9720000   13.4360000   24.8230000  
H 18.0760000   11.3790000   27.2390000  
C 17.7010000   15.6700000   25.2010000  
C 18.7910000   15.7560000   24.3760000  
C 18.6720000   16.3990000   23.1260000  
C 17.4540000   16.8890000   22.5880000  
C 16.3480000   16.7480000   23.4390000  
C 16.4730000   16.0820000   24.7430000  
C 20.1630000   15.2240000   24.4700000  
C 20.7270000   15.4730000   23.2250000  
N 19.7750000   16.1070000   22.3540000  
O 22.8780000   14.7340000   23.7980000  
C 22.1010000   15.1470000   22.7880000  
O 22.5100000   15.2560000   21.6650000  
O 15.0990000   17.1800000   22.9940000  
O 15.3290000   15.8470000   25.3730000  
H 20.7380000   14.9130000   25.3410000  
H 22.3280000   14.6640000   24.5650000  
H 19.8250000   16.1060000   21.3440000  
H 15.2190000   17.6710000   22.1460000  
H 14.6530000   16.3900000   24.9800000  
C 17.2870000   17.3720000   21.1730000  
C 16.4900000   16.5730000   20.3460000  
C 16.3280000   16.9590000   19.0460000  
C 16.8260000   18.1940000   18.4900000  
C 17.7210000   18.8880000   19.3660000  
C 17.9780000   18.4620000   20.6990000  
C 15.7600000   15.3140000   20.5060000  
C 15.3410000   15.0610000   19.1990000  
N 15.5830000   16.1240000   18.3210000  
O 14.3480000   13.0140000   19.9630000  
C 14.4490000   13.9180000   18.8790000  
O 13.9060000   13.6720000   17.8580000  
O 18.1520000   20.1510000   19.0200000  
O 18.7700000   19.0760000   21.6080000  
H 15.7110000   14.6730000   21.3340000  
H 15.0430000   13.3020000   20.5370000  
H 15.2900000   16.3120000   17.3450000  
H 18.6300000   20.4860000   19.8340000  
H 18.7610000   18.5610000   22.4640000  
C 16.5410000   18.5800000   17.1230000  
C 15.2110000   18.7920000   16.6540000  
C 14.8690000   19.1280000   15.3720000  
C 15.8590000   19.4150000   14.4060000  
C 17.2100000   19.2620000   14.8220000  
C 17.5610000   18.8320000   16.1020000  
C 13.8810000   18.5850000   17.3520000  
C 12.8880000   18.9640000   16.4530000  
N 13.5140000   19.2550000   15.2590000  
O 11.1330000   18.7620000   18.1080000  
C 11.4770000   19.1570000   16.8120000  
O 10.5990000   19.4420000   15.9780000  
O 18.1620000   19.5560000   13.8950000  
O 18.8550000   18.4580000   16.3060000  
H 13.8300000   18.3560000   18.3500000  
H 12.0460000   18.4460000   18.4530000  
H 13.0230000   19.5380000   14.4080000  
H 19.0330000   19.6040000   14.3410000  
H 18.8460000   18.1310000   17.1950000  
H 15.7260000   19.6930000   13.2910000  
