78
111 
C 11.5840000   19.7810000   25.8840000  
C 10.3040000   19.4730000   25.5380000  
C 10.1620000   18.5080000   24.4800000  
C 11.2460000   17.9170000   23.8550000  
C 12.5880000   18.2110000   24.1860000  
C 12.7270000   19.1950000   25.2550000  
C  9.0090000   17.9630000   23.8150000  
C  9.4680000   17.0740000   22.8650000  
N 10.8850000   17.0560000   22.8210000  
O  7.3710000   16.2020000   22.1760000  
C  8.6850000   16.1840000   21.9510000  
O  9.1670000   15.3930000   21.1930000  
O 13.9780000   19.5330000   25.6630000  
O 11.8160000   20.6130000   26.9850000  
H  9.4430000   20.0020000   26.0080000  
H  8.0120000   18.0070000   24.1290000  
H  7.1390000   16.9790000   22.6320000  
H 11.4730000   16.7520000   22.1430000  
H 14.6500000   19.2610000   24.9860000  
H 12.7220000   21.0630000   26.9150000  
C 13.7590000   17.6210000   23.4770000  
C 14.6690000   18.4740000   22.8290000  
C 15.7600000   18.0010000   22.2460000  
C 16.1570000   16.6540000   22.0720000  
C 15.2650000   15.7570000   22.7570000  
C 14.0800000   16.2190000   23.4690000  
C 14.7390000   19.9130000   22.6910000  
C 15.8460000   20.1760000   21.9380000  
N 16.5740000   18.9970000   21.7220000  
O 15.5690000   22.5490000   21.7800000  
C 16.1690000   21.4690000   21.3140000  
O 17.1060000   21.5710000   20.5840000  
O 15.6410000   14.4220000   22.8570000  
O 13.1680000   15.3650000   23.9720000  
H 13.9630000   20.5630000   22.9730000  
H 14.9850000   22.1480000   22.4600000  
H 17.4830000   18.9200000   21.2660000  
H 16.5350000   14.3760000   22.6270000  
H 13.6070000   14.4320000   24.0900000  
C 17.3280000   16.1900000   21.2970000  
C 18.6750000   16.6150000   21.6210000  
C 19.7600000   16.2280000   20.9160000  
C 19.7340000   15.4990000   19.7330000  
C 18.4500000   14.9160000   19.4440000  
C 17.2500000   15.3370000   20.1610000  
C 19.1370000   17.4540000   22.7020000  
C 20.5120000   17.5340000   22.4820000  
N 20.8600000   16.8930000   21.2840000  
O 21.0540000   19.2400000   24.0260000  
C 21.5070000   18.2010000   23.3540000  
O 22.6650000   17.9300000   23.3320000  
O 18.2300000   14.0500000   18.3460000  
O 16.1090000   14.8140000   19.6500000  
H 18.5750000   17.9760000   23.4890000  
H 20.1210000   19.1870000   23.7770000  
H 21.7780000   16.6860000   20.9190000  
H 17.1930000   14.0080000   18.2160000  
H 15.4150000   15.0940000   20.3080000  
C 21.0230000   15.1160000   19.0620000  
C 22.1320000   14.5200000   19.7830000  
C 23.3450000   14.2840000   19.1690000  
C 23.5840000   14.5520000   17.8530000  
C 22.5520000   15.1540000   17.0750000  
C 21.2980000   15.4480000   17.7180000  
C 22.3190000   14.1160000   21.1270000  
C 23.5900000   13.5790000   21.2280000  
N 24.2650000   13.7960000   20.0720000  
O 23.3660000   13.2500000   23.5570000  
C 24.2590000   13.2430000   22.4980000  
O 25.4430000   12.9630000   22.6580000  
O 22.8020000   15.4160000   15.7170000  
O 20.2970000   16.0220000   17.0160000  
H 21.5920000   14.1150000   21.8640000  
H 22.4640000   13.1360000   23.2290000  
H 25.2640000   13.7590000   19.8450000  
H 22.0550000   15.9590000   15.4090000  
H 19.5650000   16.1750000   17.6040000  
H 24.5020000   14.2120000   17.4230000  
