78
111 
C 15.8010000   16.8150000   29.4420000  
C 17.0650000   16.6940000   29.9600000  
C 18.1830000   16.7050000   29.1040000  
C 17.9600000   16.6800000   27.7590000  
C 16.7260000   16.7620000   27.1650000  
C 15.6460000   16.8670000   28.0430000  
C 19.6340000   16.4470000   29.2990000  
C 20.2190000   16.4660000   28.0310000  
N 19.1600000   16.6770000   27.0990000  
O 22.3380000   15.7160000   28.7660000  
C 21.6610000   16.1930000   27.6930000  
O 22.2030000   16.2460000   26.6400000  
O 14.4620000   17.0580000   27.4990000  
O 14.6640000   16.9940000   30.2680000  
H 17.2370000   16.4790000   31.0410000  
H 20.0260000   16.1070000   30.2830000  
H 21.6300000   15.5560000   29.3970000  
H 19.2690000   16.8520000   26.0950000  
H 14.4930000   17.5770000   26.6790000  
H 13.8780000   17.0910000   29.7390000  
C 16.5790000   16.9710000   25.6760000  
C 17.0960000   15.9530000   24.7630000  
C 17.2470000   16.2180000   23.4300000  
C 16.9400000   17.4380000   22.7480000  
C 16.4190000   18.4200000   23.6700000  
C 16.2440000   18.2030000   25.0910000  
C 17.6720000   14.6360000   24.9760000  
C 18.1930000   14.1950000   23.7860000  
N 17.9990000   15.2410000   22.8440000  
O 19.3370000   12.2540000   24.5780000  
C 19.1540000   13.1120000   23.5550000  
O 19.7750000   12.9980000   22.5170000  
O 15.9540000   19.6080000   23.0730000  
O 15.6810000   19.1910000   25.7880000  
H 17.6980000   14.0000000   25.8340000  
H 18.6840000   12.4130000   25.3000000  
H 18.4460000   15.2670000   21.9450000  
H 16.1880000   19.5600000   22.1310000  
H 15.6200000   20.0290000   25.2830000  
C 17.1410000   17.6150000   21.2930000  
C 16.3350000   16.8530000   20.4620000  
C 16.3930000   16.9670000   19.1020000  
C 17.2420000   17.7760000   18.4150000  
C 18.0130000   18.6570000   19.2190000  
C 18.0080000   18.5510000   20.6470000  
C 15.5020000   15.6600000   20.6510000  
C 15.1800000   15.0930000   19.4370000  
N 15.7170000   15.8930000   18.4580000  
O 13.6890000   13.4180000   20.3930000  
C 14.1620000   14.0460000   19.2490000  
O 13.7440000   13.7800000   18.1160000  
O 18.7930000   19.6010000   18.6600000  
O 18.8140000   19.3990000   21.3690000  
H 14.9880000   15.2810000   21.5980000  
H 14.0630000   13.9010000   21.1450000  
H 15.5940000   15.9210000   17.4510000  
H 19.2960000   20.1210000   19.3520000  
H 18.7210000   19.4180000   22.3640000  
C 17.3700000   17.7620000   16.9410000  
C 16.2480000   17.9350000   16.0680000  
C 16.3880000   17.9620000   14.6970000  
C 17.5810000   17.6330000   14.0370000  
C 18.7490000   17.3280000   14.8420000  
C 18.5960000   17.4720000   16.2670000  
C 14.8180000   18.1150000   16.3740000  
C 14.2140000   18.3980000   15.1490000  
N 15.1650000   18.3610000   14.1250000  
O 12.2990000   19.2110000   16.1590000  
C 12.8700000   18.9480000   15.0020000  
O 12.4460000   19.2570000   13.9090000  
O 19.9320000   16.9670000   14.2390000  
O 19.7440000   17.3900000   16.9560000  
H 14.3460000   18.1220000   17.3380000  
H 12.7350000   18.6040000   16.7620000  
H 15.0360000   18.6740000   13.1410000  
H 20.4390000   16.5640000   14.9500000  
H 19.7330000   18.1120000   17.6390000  
H 17.6150000   17.4610000   12.9270000  
