78
111 
C 14.5960000   12.2560000   16.3510000  
C 13.6490000   11.3680000   16.9820000  
C 13.4210000   11.6080000   18.3020000  
C 14.0890000   12.5490000   19.0390000  
C 15.1610000   13.3400000   18.5040000  
C 15.3980000   13.1630000   17.1380000  
C 12.3520000   11.1810000   19.1240000  
C 12.4870000   11.7270000   20.4150000  
N 13.5640000   12.6490000   20.3350000  
O 10.5590000   10.7230000   21.2980000  
C 11.6390000   11.4530000   21.5730000  
O 11.8540000   11.7310000   22.7680000  
O 16.2590000   14.0580000   16.4850000  
O 14.7990000   12.0700000   15.0010000  
H 12.9760000   10.7270000   16.3900000  
H 11.7150000   10.3740000   18.8940000  
H 10.7230000   10.4780000   20.3850000  
H 13.9670000   13.2540000   21.0370000  
H 16.5320000   14.7810000   17.1090000  
H 15.1670000   12.8410000   14.5240000  
C 15.8950000   14.3860000   19.2910000  
C 17.1120000   14.0520000   19.9410000  
C 17.6940000   15.0090000   20.7450000  
C 17.1640000   16.2890000   21.0940000  
C 15.9770000   16.6670000   20.3840000  
C 15.3300000   15.7360000   19.5150000  
C 17.9990000   12.9810000   19.7740000  
C 19.1800000   13.3190000   20.5040000  
N 18.9680000   14.5410000   21.0790000  
O 20.3550000   11.4380000   19.6960000  
C 20.3670000   12.4930000   20.5340000  
O 21.3850000   12.7880000   21.1200000  
O 15.2760000   17.7880000   20.6750000  
O 14.0940000   16.0450000   19.0350000  
H 17.7420000   12.1270000   19.1740000  
H 19.4230000   11.2400000   19.4430000  
H 19.7310000   15.0870000   21.5680000  
H 15.6660000   18.1170000   21.5400000  
H 13.9580000   16.9260000   19.4340000  
C 17.6640000   17.1000000   22.2020000  
C 17.9540000   18.4470000   22.0020000  
C 18.4790000   19.2730000   22.9940000  
C 18.7690000   18.8350000   24.3340000  
C 18.3470000   17.4610000   24.5800000  
C 17.8900000   16.5830000   23.5420000  
C 18.0470000   19.1790000   20.7990000  
C 18.6800000   20.4030000   21.0600000  
N 18.9260000   20.4790000   22.4380000  
O 18.7510000   21.1340000   18.8710000  
C 19.0510000   21.4900000   20.1240000  
O 19.4570000   22.5700000   20.3830000  
O 18.5160000   16.9040000   25.7880000  
O 17.6450000   15.2470000   23.8170000  
H 17.7820000   18.7200000   19.8090000  
H 18.1450000   20.3830000   19.0150000  
H 19.2980000   21.3130000   22.9150000  
H 18.2180000   15.9910000   25.6020000  
H 17.0230000   15.0240000   23.0410000  
C 19.2790000   19.8790000   25.3240000  
C 18.5570000   21.0470000   25.5720000  
C 18.9560000   22.0250000   26.3920000  
C 20.2220000   21.9210000   27.0850000  
C 21.0020000   20.7940000   26.8360000  
C 20.5390000   19.7930000   26.0190000  
C 17.2830000   21.5730000   25.0750000  
C 16.9690000   22.7650000   25.7030000  
N 18.0760000   23.0620000   26.5430000  
O 14.8160000   23.0840000   24.6130000  
C 15.8100000   23.6420000   25.3650000  
O 15.6870000   24.8150000   25.7510000  
O 22.1670000   20.7930000   27.4980000  
O 21.3560000   18.7140000   25.8760000  
H 16.5920000   21.1810000   24.3280000  
H 15.1480000   22.1940000   24.4100000  
H 18.2280000   23.9420000   27.0730000  
H 22.5280000   19.8500000   27.6370000  
H 20.9780000   18.0320000   25.3520000  
H 20.6060000   22.8080000   27.6390000  
