78
111 
C 18.6860000   10.9300000   25.8430000  
C 20.0530000   10.6490000   25.8840000  
C 20.9340000   11.5390000   25.2700000  
C 20.4340000   12.6120000   24.6610000  
C 19.0760000   12.9100000   24.5130000  
C 18.1400000   12.0020000   25.1270000  
C 22.3770000   11.5390000   24.9290000  
C 22.5720000   12.7760000   24.2540000  
N 21.3880000   13.4260000   24.0950000  
O 24.8730000   12.3710000   23.6780000  
C 23.7990000   13.2500000   23.6180000  
O 23.9100000   14.3140000   22.9910000  
O 16.7730000   12.2280000   25.1000000  
O 17.8710000   10.1030000   26.5260000  
H 20.4010000    9.7570000   26.4460000  
H 23.0930000   10.7440000   25.1420000  
H 24.6500000   11.6350000   24.2540000  
H 21.2240000   14.2260000   23.6460000  
H 16.6390000   12.8600000   24.3740000  
H 16.9290000   10.3250000   26.2620000  
C 18.5900000   14.0390000   23.7590000  
C 17.7410000   13.7320000   22.6520000  
C 17.2490000   14.7840000   21.9130000  
C 17.5470000   16.1460000   22.0910000  
C 18.4330000   16.4210000   23.1740000  
C 18.9970000   15.3850000   23.9570000  
C 17.2220000   12.5720000   21.9780000  
C 16.5950000   12.9770000   20.7840000  
N 16.4860000   14.3380000   20.7930000  
O 16.2200000   10.8170000   20.0980000  
C 16.0300000   12.0790000   19.7660000  
O 15.4060000   12.4230000   18.8100000  
O 18.7240000   17.7100000   23.4050000  
O 19.6890000   15.7560000   25.0960000  
H 17.3760000   11.5760000   22.3540000  
H 16.8500000   10.7680000   20.8220000  
H 15.9120000   14.8800000   20.1230000  
H 18.5190000   18.2500000   22.5880000  
H 19.9720000   16.7260000   25.0430000  
C 16.8860000   17.2120000   21.2720000  
C 15.8740000   18.0810000   21.7680000  
C 15.3260000   19.0340000   21.0220000  
C 15.7140000   19.3100000   19.6900000  
C 16.7190000   18.4610000   19.1570000  
C 17.3070000   17.4490000   19.9000000  
C 15.2440000   18.1540000   23.0710000  
C 14.2990000   19.1780000   22.9450000  
N 14.3380000   19.7360000   21.6760000  
O 13.4750000   19.1880000   25.1910000  
C 13.3610000   19.6790000   23.9430000  
O 12.5800000   20.5280000   23.6100000  
O 17.2800000   18.7260000   17.9340000  
O 18.4110000   16.8140000   19.4330000  
H 15.5370000   17.5530000   23.9550000  
H 13.9490000   18.3110000   24.9810000  
H 13.9560000   20.6920000   21.5490000  
H 18.1110000   18.1870000   17.7540000  
H 18.4950000   16.0920000   20.0530000  
C 14.9350000   20.3240000   18.8830000  
C 15.0400000   21.6460000   19.1830000  
C 14.1680000   22.5230000   18.6360000  
C 13.2280000   22.1480000   17.7020000  
C 13.0680000   20.7780000   17.3350000  
C 13.9200000   19.8670000   17.9980000  
C 15.7720000   22.3530000   20.2740000  
C 15.3150000   23.6690000   20.1890000  
N 14.3430000   23.8180000   19.1940000  
O 16.6450000   24.4640000   21.9690000  
C 15.7020000   24.7130000   21.1260000  
O 15.2450000   25.8370000   21.0510000  
O 11.9870000   20.3670000   16.5650000  
O 13.6460000   18.5400000   17.7840000  
H 16.7040000   22.0690000   20.7500000  
H 16.7870000   23.5110000   21.9710000  
H 13.7220000   24.5960000   19.0880000  
H 12.0430000   19.4030000   16.6590000  
H 14.1580000   17.9880000   18.3740000  
H 12.4940000   22.9000000   17.3320000  
