78
111 
C 14.4180000   17.3400000   28.6250000  
C 13.6700000   18.4680000   28.9130000  
C 13.4390000   19.3270000   27.8680000  
C 14.0550000   19.2320000   26.6310000  
C 14.8750000   18.0870000   26.2900000  
C 15.0130000   17.1640000   27.3600000  
C 12.7920000   20.6290000   27.8320000  
C 12.9600000   21.1210000   26.5210000  
N 13.8480000   20.2660000   25.8320000  
O 11.8160000   23.1000000   26.8440000  
C 12.4060000   22.3340000   25.9670000  
O 12.4370000   22.4750000   24.7610000  
O 15.7340000   16.0160000   27.1980000  
O 14.5110000   16.3040000   29.4920000  
H 13.3250000   18.5270000   29.9740000  
H 12.2140000   21.0940000   28.6290000  
H 12.0860000   22.8200000   27.6740000  
H 14.0320000   20.3950000   24.8260000  
H 16.1880000   16.0260000   26.3240000  
H 14.9180000   15.5340000   29.0290000  
C 15.5760000   18.0350000   24.9660000  
C 16.9790000   17.7460000   24.8670000  
C 17.5620000   17.5810000   23.7160000  
C 16.9300000   17.4700000   22.4620000  
C 15.5260000   17.6480000   22.5460000  
C 14.8510000   17.8840000   23.7860000  
C 18.0000000   17.6110000   25.9020000  
C 19.1320000   17.1660000   25.2600000  
N 18.8890000   17.3420000   23.8730000  
O 20.2220000   16.6800000   27.2570000  
C 20.3780000   16.7770000   25.9450000  
O 21.4860000   16.5250000   25.4760000  
O 14.7840000   17.4900000   21.3980000  
O 13.4970000   18.0020000   23.6130000  
H 17.8750000   17.7910000   27.0040000  
H 19.3050000   16.8670000   27.3870000  
H 19.4950000   16.9770000   23.1750000  
H 15.4140000   17.1420000   20.7440000  
H 13.3790000   17.8970000   22.6470000  
C 17.7250000   16.9980000   21.2720000  
C 17.5310000   15.7370000   20.7440000  
C 18.3100000   15.2180000   19.7260000  
C 19.3120000   15.9400000   19.0440000  
C 19.4740000   17.2820000   19.5290000  
C 18.7670000   17.7380000   20.6520000  
C 16.4310000   14.7710000   21.0080000  
C 16.5070000   13.8920000   19.9550000  
N 17.7090000   14.1030000   19.1530000  
O 14.4580000   12.7600000   20.5270000  
C 15.4880000   12.8430000   19.6700000  
O 15.5380000   12.0940000   18.7610000  
O 20.4060000   18.0660000   18.9250000  
O 19.0400000   19.0240000   21.0570000  
H 15.6120000   14.8720000   21.7410000  
H 14.6240000   13.2680000   21.2860000  
H 17.8490000   13.8130000   18.2070000  
H 20.5170000   18.8200000   19.5700000  
H 18.4730000   19.1280000   21.8560000  
C 20.0210000   15.5030000   17.8140000  
C 19.2800000   15.3450000   16.6060000  
C 19.9460000   14.8430000   15.4880000  
C 21.2800000   14.3010000   15.4810000  
C 22.0310000   14.5110000   16.6920000  
C 21.3380000   14.9980000   17.8300000  
C 17.9030000   15.6510000   16.1610000  
C 17.8590000   15.3230000   14.7910000  
N 19.1280000   14.8390000   14.4480000  
O 15.5840000   15.6860000   14.5950000  
C 16.7570000   15.3950000   13.9150000  
O 16.8420000   15.1710000   12.6760000  
O 23.2720000   14.0360000   16.8990000  
O 22.0210000   15.1660000   18.9590000  
H 17.1450000   16.0700000   16.7840000  
H 15.9470000   15.9340000   15.4630000  
H 19.4860000   14.6250000   13.5750000  
H 23.5460000   14.3350000   17.8230000  
H 21.4520000   15.6520000   19.5040000  
H 21.6880000   13.7340000   14.6320000  
