78
111 
C 10.5420000   17.3760000   18.3120000  
C  9.6340000   16.5500000   18.8940000  
C  9.9810000   15.7440000   19.9790000  
C 11.2300000   15.6620000   20.4270000  
C 12.2880000   16.3860000   19.8000000  
C 11.8700000   17.2720000   18.7330000  
C  9.1970000   14.6520000   20.5090000  
C 10.0490000   14.0420000   21.4050000  
N 11.3740000   14.5740000   21.2720000  
O  8.5780000   12.4370000   22.4150000  
C  9.7410000   13.0390000   22.4970000  
O 10.5670000   12.8100000   23.3620000  
O 12.7560000   18.1540000   18.2080000  
O 10.2150000   18.2650000   17.3450000  
H  8.5840000   16.4680000   18.5390000  
H  8.1420000   14.4130000   20.4630000  
H  8.1490000   12.6870000   21.5960000  
H 12.1400000   14.5620000   21.8980000  
H 13.6410000   17.7900000   18.4280000  
H 10.8460000   19.0660000   17.3170000  
C 13.6930000   16.4070000   20.3870000  
C 14.8270000   16.0600000   19.6820000  
C 16.0880000   16.0690000   20.2530000  
C 16.4240000   16.6580000   21.4850000  
C 15.2660000   17.0360000   22.2080000  
C 13.9400000   16.8570000   21.6890000  
C 15.0450000   15.3400000   18.3930000  
C 16.4130000   15.1280000   18.2620000  
N 17.0900000   15.7460000   19.3630000  
O 16.2470000   13.5440000   16.5970000  
C 17.1060000   14.4020000   17.2150000  
O 18.3290000   14.5260000   17.0750000  
O 15.3950000   17.5590000   23.4760000  
O 12.7420000   17.2120000   22.4290000  
H 14.2810000   15.1370000   17.6860000  
H 15.4070000   13.5700000   17.0840000  
H 18.0660000   15.7630000   19.5370000  
H 16.2650000   17.9570000   23.5750000  
H 13.1250000   17.4400000   23.2690000  
C 17.7800000   16.6420000   22.0800000  
C 18.8010000   17.5500000   21.7130000  
C 19.9630000   17.5980000   22.4640000  
C 20.3100000   16.7210000   23.4280000  
C 19.3470000   15.7620000   23.7590000  
C 18.1100000   15.7160000   23.1090000  
C 18.9330000   18.5840000   20.7090000  
C 20.1850000   19.1500000   20.8500000  
N 20.8300000   18.5760000   21.9740000  
O 20.1450000   20.5980000   18.8990000  
C 20.8410000   20.2010000   19.9970000  
O 21.9830000   20.6350000   20.2450000  
O 19.5530000   14.8850000   24.7840000  
O 17.2120000   14.8270000   23.5970000  
H 18.1970000   18.8230000   20.0390000  
H 19.3630000   20.0410000   18.8900000  
H 21.8250000   18.7490000   22.2230000  
H 18.7090000   14.3190000   24.8360000  
H 16.6190000   14.6880000   22.8300000  
C 21.5550000   16.8260000   24.2560000  
C 21.8490000   18.0220000   24.9210000  
C 23.0430000   18.1270000   25.5660000  
C 23.9740000   17.1160000   25.6140000  
C 23.7590000   15.9350000   24.9450000  
C 22.5780000   15.8000000   24.2530000  
C 21.0980000   19.2440000   25.1560000  
C 21.9530000   20.0720000   25.8650000  
N 23.0520000   19.3190000   26.2840000  
O 20.5180000   22.0160000   25.6880000  
C 21.6640000   21.5100000   26.1390000  
O 22.4490000   22.2130000   26.7340000  
O 24.7370000   14.9600000   24.8810000  
O 22.3060000   14.6770000   23.5440000  
H 20.2510000   19.5740000   24.6230000  
H 19.8970000   21.2840000   25.4050000  
H 23.7530000   19.5870000   26.9280000  
H 24.3510000   14.3870000   24.1600000  
H 21.3560000   14.7080000   23.5030000  
H 24.8970000   17.3300000   26.0630000  
