78
110 
C 15.5650000   17.5160000   29.0530000  
C 14.9850000   18.7520000   29.2440000  
C 14.4900000   19.5110000   28.0880000  
C 14.6810000   18.9510000   26.8580000  
C 15.3430000   17.7680000   26.5500000  
C 15.7300000   17.0420000   27.7170000  
C 13.8460000   20.8040000   27.8650000  
C 13.6860000   20.9700000   26.5080000  
N 14.2770000   19.8390000   25.8900000  
O 12.9970000   23.2320000   26.6910000  
C 13.2820000   22.2570000   25.7730000  
O 13.1700000   22.3160000   24.5580000  
O 16.1890000   15.7490000   27.5380000  
O 15.8490000   16.6400000   30.0870000  
H 14.7850000   19.1130000   30.2390000  
H 13.5230000   21.5780000   28.6330000  
H 13.1970000   22.8350000   27.5170000  
H 14.4630000   19.7230000   24.9390000  
H 15.7830000   15.2750000   26.7860000  
H 16.6680000   16.2030000   29.8470000  
C 15.7210000   17.4310000   25.1310000  
C 16.7790000   18.1010000   24.4390000  
C 17.2070000   17.5580000   23.2520000  
C 16.7380000   16.4420000   22.5440000  
C 15.7320000   15.7400000   23.2610000  
C 15.2880000   16.2300000   24.5280000  
C 17.4720000   19.3860000   24.5730000  
C 18.0650000   19.6700000   23.3310000  
N 17.8860000   18.5240000   22.5350000  
O 18.7550000   21.7920000   23.7660000  
C 18.6850000   20.9040000   22.8510000  
O 19.0970000   21.0640000   21.7120000  
O 15.2030000   14.5960000   22.6340000  
O 14.4470000   15.4040000   25.1480000  
H 17.3230000   20.1610000   25.3670000  
H 18.3620000   21.4190000   24.6030000  
H 18.2750000   18.5200000   21.6300000  
H 15.4340000   14.7140000   21.7610000  
H 14.2130000   14.7270000   24.5310000  
C 17.3020000   16.1290000   21.1340000  
C 18.6660000   15.7620000   21.0010000  
C 19.1700000   15.4230000   19.7730000  
C 18.4110000   15.2210000   18.6030000  
C 17.0580000   15.4540000   18.8100000  
C 16.4660000   15.8730000   19.9970000  
C 19.7640000   15.8290000   21.9540000  
C 20.8370000   15.3720000   21.2290000  
N 20.5180000   15.2190000   19.8470000  
O 22.2860000   15.1220000   23.0240000  
C 22.1990000   15.1020000   21.7190000  
O 23.1490000   14.8180000   21.0150000  
O 16.2850000   15.3520000   17.7700000  
O 15.0920000   16.1180000   20.0530000  
H 19.6930000   16.0500000   23.0050000  
H 21.3350000   15.1160000   23.2630000  
H 21.1330000   14.9590000   19.0620000  
H 16.8420000   15.1830000   17.0050000  
H 14.6390000   15.8730000   19.2380000  
C 19.0090000   14.7880000   17.2630000  
C 18.8820000   13.4780000   16.7760000  
C 19.2530000   13.0480000   15.5210000  
C 19.9280000   13.9480000   14.6740000  
C 20.3010000   15.1970000   15.2050000  
C 19.8360000   15.6640000   16.5120000  
C 18.2340000   12.3220000   17.3250000  
C 18.3940000   11.2690000   16.4470000  
N 19.0200000   11.7440000   15.2850000  
O 17.7470000    9.6000000   17.9790000  
C 18.1140000    9.7850000   16.7090000  
O 18.3120000    8.8520000   15.9110000  
O 21.0530000   16.0590000   14.4950000  
O 20.0740000   16.9400000   16.8570000  
H 17.7060000   12.3830000   18.2170000  
H 17.8970000   10.4840000   18.3130000  
H 19.3120000   11.2490000   14.4640000  
H 21.2950000   16.7850000   15.1330000  
H 19.9150000   17.1250000   17.8010000  
H 20.3160000   13.6380000   13.7010000  
