78
111 
C 18.0740000   15.5140000   28.9710000  
C 17.0300000   16.0030000   29.7920000  
C 15.9920000   16.7680000   29.2220000  
C 16.0300000   17.0020000   27.8670000  
C 17.0370000   16.6220000   26.9400000  
C 18.0600000   15.8190000   27.5310000  
C 14.8380000   17.4660000   29.8140000  
C 14.2860000   18.2430000   28.8000000  
N 15.0190000   17.8870000   27.5840000  
O 12.4500000   19.0430000   30.0570000  
C 13.0790000   19.1480000   28.8840000  
O 12.7150000   19.8870000   27.9890000  
O 19.0420000   15.2030000   26.7580000  
O 19.1200000   14.8110000   29.4980000  
H 17.0330000   15.7550000   30.9280000  
H 14.5040000   17.3950000   30.8540000  
H 12.8170000   18.2320000   30.4230000  
H 14.8050000   18.3030000   26.6900000  
H 19.0100000   15.5220000   25.8020000  
H 19.1180000   13.9350000   29.0320000  
C 16.8980000   16.8270000   25.4470000  
C 17.9020000   17.5950000   24.7380000  
C 17.8520000   17.7760000   23.3490000  
C 16.9480000   17.0880000   22.5260000  
C 15.9730000   16.2340000   23.1740000  
C 15.9300000   16.2030000   24.6260000  
C 19.0370000   18.3030000   25.1850000  
C 19.6490000   18.8630000   23.9960000  
N 18.8760000   18.5780000   22.9050000  
O 21.4050000   20.0200000   25.1780000  
C 20.8660000   19.8010000   23.9310000  
O 21.2830000   20.2720000   22.8760000  
O 14.9850000   15.5670000   22.4380000  
O 15.0680000   15.4530000   25.2850000  
H 19.4870000   18.3300000   26.1560000  
H 20.9380000   19.3510000   25.6960000  
H 18.9620000   18.8350000   21.9630000  
H 15.0730000   15.4360000   21.4830000  
H 14.6900000   14.8330000   24.5990000  
C 17.0130000   17.3280000   21.1020000  
C 17.4500000   16.2080000   20.3750000  
C 17.5830000   16.2590000   19.0090000  
C 17.3990000   17.4910000   18.2770000  
C 16.9650000   18.6080000   18.9880000  
C 16.7130000   18.5100000   20.4060000  
C 17.9120000   14.8820000   20.7030000  
C 18.2250000   14.2920000   19.4650000  
N 18.0400000   15.1950000   18.4190000  
O 18.8620000   12.1970000   20.4520000  
C 18.6660000   12.9070000   19.2800000  
O 19.0350000   12.5580000   18.1790000  
O 16.7110000   19.7730000   18.4000000  
O 16.0270000   19.5250000   20.9880000  
H 18.0420000   14.4170000   21.7290000  
H 18.3300000   12.6730000   21.1380000  
H 18.2470000   15.0560000   17.4480000  
H 16.4200000   20.3160000   19.1470000  
H 15.7880000   19.2970000   21.8890000  
C 17.5080000   17.4680000   16.7620000  
C 16.7150000   16.5760000   15.9940000  
C 16.9200000   16.4440000   14.6350000  
C 17.7600000   17.2370000   13.9030000  
C 18.5140000   18.1880000   14.6540000  
C 18.3480000   18.3390000   16.0580000  
C 15.7580000   15.6060000   16.4050000  
C 15.3240000   14.9720000   15.2500000  
N 15.9820000   15.5770000   14.1310000  
O 13.7840000   13.4850000   16.3500000  
C 14.2850000   13.9050000   15.1420000  
O 13.9070000   13.4200000   14.0620000  
O 19.4610000   18.9060000   13.8810000  
O 19.1800000   19.1410000   16.7680000  
H 15.5560000   15.2040000   17.4170000  
H 14.0440000   14.1980000   16.9560000  
H 15.8150000   15.4320000   13.1530000  
H 19.6970000   19.5700000   14.5650000  
H 18.9920000   18.9380000   17.7020000  
H 18.0390000   17.0340000   12.8940000  
