78
111 
C 15.1480000   15.9500000   28.7740000  
C 16.0320000   16.4830000   29.7530000  
C 17.1200000   17.2790000   29.3330000  
C 17.3050000   17.3800000   27.9710000  
C 16.3980000   16.9430000   26.9890000  
C 15.2310000   16.2840000   27.4000000  
C 18.2620000   17.9010000   29.9950000  
C 18.9960000   18.4330000   28.9520000  
N 18.4300000   18.0790000   27.7280000  
O 20.8250000   19.0810000   30.2580000  
C 20.3030000   19.1600000   29.0050000  
O 20.8430000   19.6820000   28.0400000  
O 14.2930000   15.8140000   26.5270000  
O 14.1270000   15.1180000   29.1140000  
H 15.8890000   16.2110000   30.7970000  
H 18.5630000   17.9070000   31.0350000  
H 20.0490000   18.7410000   30.7590000  
H 18.6770000   18.4120000   26.7760000  
H 14.5910000   16.1390000   25.6640000  
H 13.6560000   14.9500000   28.3060000  
C 16.6280000   17.1450000   25.5010000  
C 17.5310000   16.2460000   24.8090000  
C 17.6370000   16.3030000   23.4830000  
C 17.0950000   17.2860000   22.6260000  
C 16.2330000   18.1940000   23.3420000  
C 15.8860000   18.0540000   24.7190000  
C 18.3430000   15.1200000   25.2660000  
C 19.0270000   14.5910000   24.1250000  
N 18.5850000   15.3840000   23.0130000  
O 20.1300000   12.5870000   25.1030000  
C 19.8270000   13.3160000   23.9850000  
O 20.0840000   12.8300000   22.9280000  
O 15.5440000   19.0740000   22.5380000  
O 14.9560000   18.9190000   25.1760000  
H 18.4560000   14.8030000   26.2810000  
H 19.6790000   13.1950000   25.7520000  
H 18.9410000   15.2780000   22.1350000  
H 15.9280000   19.0770000   21.6540000  
H 14.3740000   19.2610000   24.4940000  
C 17.3170000   17.3700000   21.0790000  
C 16.7600000   16.3610000   20.2300000  
C 16.9440000   16.4380000   18.9350000  
C 17.7070000   17.4430000   18.2790000  
C 18.3860000   18.2780000   19.1820000  
C 18.2330000   18.2710000   20.5290000  
C 15.9650000   15.1560000   20.4560000  
C 15.7370000   14.6060000   19.1840000  
N 16.4560000   15.3940000   18.2590000  
O 14.0030000   13.1900000   19.8590000  
C 14.7720000   13.5870000   18.7850000  
O 14.6740000   13.1150000   17.6510000  
O 19.3430000   19.1910000   18.7410000  
O 18.8740000   19.1540000   21.3290000  
H 15.5450000   14.8170000   21.4700000  
H 14.5030000   13.5600000   20.5840000  
H 16.4070000   15.2680000   17.2390000  
H 19.7630000   19.6030000   19.5200000  
H 18.8440000   18.8750000   22.2920000  
C 17.7560000   17.4220000   16.7870000  
C 16.5550000   17.5820000   16.0000000  
C 16.5630000   17.4780000   14.6520000  
C 17.7770000   17.4890000   13.9250000  
C 19.0070000   17.3790000   14.6090000  
C 18.9990000   17.2610000   16.0180000  
C 15.1870000   17.7070000   16.4680000  
C 14.3960000   17.8450000   15.3390000  
N 15.2080000   17.6650000   14.2510000  
O 12.3580000   18.3120000   16.4790000  
C 12.9880000   18.1420000   15.3010000  
O 12.4310000   18.1380000   14.2470000  
O 20.0950000   17.3320000   13.8530000  
O 20.1800000   17.0740000   16.7030000  
H 14.7690000   17.8910000   17.5000000  
H 13.0010000   18.5730000   17.1590000  
H 14.8230000   17.5110000   13.2840000  
H 20.9520000   17.4710000   14.3250000  
H 19.8760000   16.8690000   17.6330000  
H 17.7490000   17.4250000   12.8100000  
