78
111 
C 10.2150000   19.6550000   22.8480000  
C  9.1960000   18.7090000   22.5090000  
C  9.6960000   17.3800000   22.5000000  
C 11.0050000   17.0420000   22.5900000  
C 12.0640000   17.9830000   22.6320000  
C 11.6120000   19.3280000   22.7520000  
C  9.0040000   16.1830000   22.1170000  
C  9.9260000   15.1270000   22.1720000  
N 11.1920000   15.7520000   22.3040000  
O  8.4170000   13.4530000   21.5880000  
C  9.6760000   13.7190000   21.9830000  
O 10.5680000   12.8860000   21.9990000  
O 12.5390000   20.3690000   22.5060000  
O  9.8230000   20.9350000   22.9720000  
H  8.1760000   18.9040000   22.3570000  
H  7.9140000   16.1310000   21.9840000  
H  7.8650000   14.2520000   21.9020000  
H 12.0920000   15.2990000   22.4770000  
H 13.3700000   19.9050000   22.7550000  
H 10.5880000   21.4540000   22.8050000  
C 13.4820000   17.5030000   22.4140000  
C 14.2110000   17.9300000   21.2330000  
C 15.4060000   17.3880000   21.0520000  
C 16.2400000   16.8010000   22.0580000  
C 15.6120000   16.4870000   23.2450000  
C 14.1980000   16.7350000   23.4440000  
C 13.9020000   18.6630000   20.0430000  
C 15.0140000   18.6390000   19.2430000  
N 15.9570000   17.8680000   19.8730000  
O 14.2150000   19.9970000   17.5930000  
C 15.2530000   19.2690000   17.9270000  
O 16.2850000   19.2290000   17.2920000  
O 16.3270000   15.9630000   24.3390000  
O 13.5620000   16.3770000   24.5840000  
H 12.9910000   19.1630000   19.9000000  
H 13.4710000   19.8420000   18.1210000  
H 16.9030000   17.7590000   19.6210000  
H 17.3450000   15.9280000   24.1380000  
H 14.1050000   15.9480000   25.2500000  
C 17.6660000   16.3810000   21.7350000  
C 18.6750000   17.3240000   21.6260000  
C 19.9520000   16.9400000   21.3280000  
C 20.4060000   15.6050000   21.2470000  
C 19.3750000   14.6190000   21.2610000  
C 18.0450000   15.0260000   21.4050000  
C 18.6890000   18.7760000   21.8560000  
C 19.9700000   19.2250000   21.7200000  
N 20.8170000   18.0710000   21.4390000  
O 19.6960000   21.7110000   21.8570000  
C 20.4860000   20.6580000   21.6890000  
O 21.7080000   20.8450000   21.4870000  
O 19.6670000   13.2890000   21.1610000  
O 17.1010000   14.0960000   21.3580000  
H 17.7950000   19.3080000   22.1400000  
H 18.8630000   21.2460000   21.9890000  
H 21.7800000   17.9920000   21.4670000  
H 18.9400000   12.8090000   21.5530000  
H 16.2550000   14.6130000   21.4580000  
C 21.8940000   15.2670000   21.2080000  
C 22.7690000   15.3200000   22.3240000  
C 24.1050000   14.9980000   22.2100000  
C 24.6470000   14.5770000   21.0130000  
C 23.8250000   14.5530000   19.8610000  
C 22.4660000   14.7770000   19.9800000  
C 22.4670000   15.7720000   23.6470000  
C 23.6510000   15.6420000   24.3470000  
N 24.6490000   15.2280000   23.4560000  
O 22.8940000   16.4210000   26.4600000  
C 23.8950000   15.8310000   25.8130000  
O 24.8950000   15.4350000   26.3520000  
O 24.3700000   14.0750000   18.7060000  
O 21.7060000   14.7240000   18.8990000  
H 21.5360000   15.8460000   24.1000000  
H 22.2280000   16.6190000   25.7430000  
H 25.6320000   15.1260000   23.6710000  
H 23.6840000   14.0920000   18.0040000  
H 20.8000000   15.1530000   19.0720000  
H 25.7320000   14.2940000   20.8970000  
