78
111 
C 16.6590000   18.2330000   29.0670000  
C 15.3230000   18.3210000   29.6250000  
C 14.2760000   17.9050000   28.7000000  
C 14.6270000   17.6770000   27.3580000  
C 15.9190000   17.6180000   26.8270000  
C 16.9790000   17.9730000   27.6870000  
C 12.8860000   18.1970000   28.6760000  
C 12.4430000   17.9520000   27.3730000  
N 13.5320000   17.5880000   26.5920000  
O 10.1840000   18.6300000   27.7220000  
C 11.0760000   18.0930000   26.8610000  
O 10.8370000   17.7420000   25.7580000  
O 18.2430000   17.9500000   27.1430000  
O 17.7520000   18.5760000   29.8460000  
H 15.1300000   18.7210000   30.5770000  
H 12.2250000   18.4840000   29.4400000  
H 10.6140000   18.9490000   28.5090000  
H 13.4580000   17.2890000   25.6280000  
H 18.1400000   17.5380000   26.2690000  
H 18.5570000   18.5670000   29.3110000  
C 16.2250000   17.3280000   25.4340000  
C 16.6100000   18.3750000   24.6110000  
C 16.7280000   18.2140000   23.2970000  
C 16.7310000   16.9870000   22.6170000  
C 16.3500000   15.8760000   23.3990000  
C 16.0300000   16.0400000   24.7910000  
C 16.8760000   19.7510000   24.9370000  
C 17.1740000   20.3690000   23.7030000  
N 17.0420000   19.4200000   22.6830000  
O 17.7430000   22.4260000   24.7730000  
C 17.5670000   21.8410000   23.5310000  
O 17.7700000   22.3380000   22.4480000  
O 16.2740000   14.7300000   22.7560000  
O 15.4680000   15.0400000   25.5670000  
H 16.8780000   20.2840000   25.8940000  
H 17.6040000   21.7800000   25.4900000  
H 17.2240000   19.5010000   21.6510000  
H 16.2460000   14.9840000   21.7820000  
H 15.2360000   14.3700000   24.9020000  
C 17.1900000   16.8640000   21.2160000  
C 18.3450000   16.1360000   20.8530000  
C 18.7250000   16.1170000   19.5160000  
C 17.9540000   16.4840000   18.4210000  
C 16.7780000   17.1690000   18.8090000  
C 16.3870000   17.3720000   20.1610000  
C 19.3900000   15.3620000   21.4950000  
C 20.2670000   14.9590000   20.5060000  
N 19.8100000   15.3440000   19.2500000  
O 21.6980000   13.7140000   22.0100000  
C 21.4540000   14.1370000   20.7140000  
O 22.2390000   13.7850000   19.8060000  
O 15.8390000   17.5850000   17.8790000  
O 15.2870000   18.1270000   20.4410000  
H 19.4250000   15.1620000   22.5880000  
H 20.9700000   14.1030000   22.5020000  
H 20.2250000   15.1530000   18.3340000  
H 15.0330000   17.9040000   18.3750000  
H 15.1700000   18.0070000   21.3970000  
C 18.3560000   16.3660000   17.0350000  
C 18.4280000   15.1360000   16.3670000  
C 18.7430000   14.9950000   15.0430000  
C 19.0330000   16.0730000   14.2230000  
C 19.0250000   17.3190000   14.8540000  
C 18.6450000   17.4650000   16.1890000  
C 18.0980000   13.7740000   16.8040000  
C 18.2120000   12.9580000   15.7020000  
N 18.6920000   13.7110000   14.6430000  
O 17.3760000   10.9920000   16.8070000  
C 17.9400000   11.5250000   15.6520000  
O 18.1330000   10.8580000   14.5990000  
O 19.4310000   18.3790000   14.0810000  
O 18.6860000   18.7480000   16.8010000  
H 17.9010000   13.4160000   17.8050000  
H 17.3890000   11.8170000   17.4130000  
H 18.9480000   13.3030000   13.7340000  
H 19.2830000   19.2180000   14.5970000  
H 18.4770000   18.6600000   17.7720000  
H 19.3340000   15.9330000   13.1990000  
