78
111 
C 22.8150000   14.3260000   26.1900000  
C 22.7940000   12.9090000   26.1370000  
C 21.7730000   12.3790000   25.3540000  
C 20.9310000   13.1770000   24.6330000  
C 20.8530000   14.5770000   24.6630000  
C 21.8090000   15.1800000   25.5930000  
C 21.4190000   11.0020000   25.0800000  
C 20.4160000   11.0670000   24.1880000  
N 20.0650000   12.4000000   23.8490000  
O 19.9260000    8.7020000   24.1270000  
C 19.8070000    9.9040000   23.4880000  
O 19.0570000    9.9870000   22.5180000  
O 21.6940000   16.5130000   25.8620000  
O 23.6450000   15.0090000   27.0540000  
H 23.5280000   12.2410000   26.6650000  
H 21.9320000   10.1310000   25.3790000  
H 20.3940000    8.9680000   24.9740000  
H 19.4180000   12.6540000   23.1770000  
H 21.2480000   16.9290000   25.0440000  
H 23.6160000   15.9610000   26.8350000  
C 19.9150000   15.3470000   23.8060000  
C 18.5520000   15.1910000   24.0360000  
C 17.6750000   15.8320000   23.2110000  
C 17.9940000   16.6600000   22.1540000  
C 19.3600000   16.8880000   21.9980000  
C 20.3310000   16.2350000   22.8300000  
C 17.7720000   14.3050000   24.8610000  
C 16.4410000   14.3940000   24.3920000  
N 16.4290000   15.3280000   23.3320000  
O 15.7050000   12.9240000   26.0040000  
C 15.3190000   13.6750000   24.9600000  
O 14.1220000   13.7870000   24.6780000  
O 19.7370000   17.8610000   21.1710000  
O 21.6480000   16.4220000   22.6880000  
H 18.2220000   13.6580000   25.5890000  
H 16.6930000   13.1090000   26.0600000  
H 15.6640000   15.6190000   22.7790000  
H 18.9180000   18.1760000   20.6840000  
H 21.9120000   16.5180000   21.7550000  
C 16.9740000   17.2240000   21.2150000  
C 15.9330000   18.1050000   21.6350000  
C 15.0040000   18.6070000   20.7640000  
C 14.8690000   18.3110000   19.4250000  
C 15.9790000   17.5750000   18.9260000  
C 17.0220000   16.9870000   19.7620000  
C 15.5240000   18.6690000   22.8990000  
C 14.4670000   19.5810000   22.7150000  
N 14.1590000   19.5610000   21.3470000  
O 14.3550000   20.2340000   24.9740000  
C 13.9020000   20.4350000   23.7580000  
O 13.0650000   21.2320000   23.4920000  
O 16.1110000   17.3370000   17.5350000  
O 18.0060000   16.2350000   19.1920000  
H 15.9580000   18.4700000   23.8380000  
H 15.0640000   19.5310000   25.0370000  
H 13.6820000   20.2620000   20.8010000  
H 16.5300000   16.4430000   17.4390000  
H 18.4330000   15.9110000   20.0080000  
C 13.8530000   18.9910000   18.5170000  
C 14.0200000   20.3040000   18.1520000  
C 13.1710000   20.9550000   17.1660000  
C 11.9970000   20.3270000   16.7340000  
C 11.7860000   18.9560000   17.1120000  
C 12.6950000   18.3170000   18.0160000  
C 15.0550000   21.2740000   18.3500000  
C 14.8180000   22.3870000   17.6260000  
N 13.5900000   22.2600000   16.9680000  
O 17.0170000   23.2290000   18.0470000  
C 15.7570000   23.5440000   17.6430000  
O 15.4470000   24.6820000   17.2730000  
O 10.5920000   18.4290000   16.7860000  
O 12.4890000   16.9480000   18.3740000  
H 15.9690000   21.1130000   18.9630000  
H 17.0290000   22.2800000   18.1230000  
H 13.2660000   22.9670000   16.3520000  
H 10.4850000   17.6260000   17.3020000  
H 13.0690000   16.7370000   19.1470000  
H 11.3180000   20.8620000   16.0750000  
