78
111 
C  9.6710000   18.4060000   21.8110000  
C  9.0270000   17.2310000   21.4040000  
C  9.8510000   16.1400000   21.0290000  
C 11.1620000   16.2880000   21.0310000  
C 11.8970000   17.3300000   21.5950000  
C 11.1210000   18.5040000   21.8400000  
C  9.4950000   14.7610000   20.7060000  
C 10.6830000   14.1200000   20.4440000  
N 11.7350000   15.0120000   20.7680000  
O  9.8160000   11.9750000   19.8760000  
C 10.9150000   12.7220000   19.9940000  
O 11.9980000   12.2980000   19.6760000  
O 11.7400000   19.6920000   22.2440000  
O  8.9180000   19.4120000   22.2730000  
H  7.9800000   17.0020000   21.4500000  
H  8.4920000   14.4030000   20.5770000  
H  9.1350000   12.3750000   20.3750000  
H 12.7690000   14.8290000   20.8080000  
H 12.6670000   19.5310000   22.1780000  
H  9.5220000   20.1350000   22.4980000  
C 13.3840000   17.2500000   21.6300000  
C 14.2160000   17.8420000   20.6520000  
C 15.5780000   17.7120000   20.6350000  
C 16.2930000   17.1670000   21.7000000  
C 15.5290000   16.4720000   22.6600000  
C 14.0830000   16.4960000   22.6060000  
C 13.9110000   18.7050000   19.4930000  
C 15.1420000   19.1080000   18.9190000  
N 16.1830000   18.4080000   19.5850000  
O 14.1640000   20.7130000   17.5030000  
C 15.3260000   20.0830000   17.8460000  
O 16.3660000   20.3590000   17.3520000  
O 16.1200000   15.8580000   23.7270000  
O 13.3450000   15.9000000   23.6350000  
H 12.9820000   19.0800000   19.0160000  
H 13.5110000   20.3560000   18.1240000  
H 17.1270000   18.6800000   19.5550000  
H 17.0880000   16.0960000   23.6940000  
H 13.9350000   15.2010000   24.0160000  
C 17.7520000   17.0000000   21.6150000  
C 18.5540000   17.6190000   22.5680000  
C 19.9180000   17.4860000   22.4960000  
C 20.6200000   16.6430000   21.6100000  
C 19.8190000   16.0690000   20.6140000  
C 18.4640000   16.2420000   20.6100000  
C 18.3120000   18.5550000   23.5830000  
C 19.5590000   18.9080000   24.1930000  
N 20.5620000   18.2640000   23.4660000  
O 18.4660000   20.3650000   25.7970000  
C 19.6610000   19.8000000   25.3630000  
O 20.7430000   20.0050000   25.8970000  
O 20.3550000   15.2290000   19.6230000  
O 17.8450000   15.7360000   19.4870000  
H 17.2680000   19.0080000   23.7740000  
H 17.7760000   20.0540000   25.2300000  
H 21.6120000   18.3130000   23.7120000  
H 19.5710000   15.0960000   19.1010000  
H 16.8690000   15.9920000   19.5710000  
C 22.1030000   16.4190000   21.7220000  
C 22.6480000   15.7890000   22.8420000  
C 24.0110000   15.6620000   22.9920000  
C 24.8640000   16.0880000   22.0080000  
C 24.3440000   16.6200000   20.8680000  
C 22.9980000   16.8200000   20.6990000  
C 22.1310000   15.2770000   24.0860000  
C 23.1090000   14.8370000   24.9140000  
N 24.3000000   15.0450000   24.1630000  
O 21.6630000   14.0050000   26.6290000  
C 22.9730000   14.1320000   26.2460000  
O 23.9340000   13.8060000   26.8970000  
O 25.2490000   16.9300000   19.8940000  
O 22.5860000   17.3810000   19.4960000  
H 21.0910000   15.0670000   24.2560000  
H 21.0370000   14.2010000   25.8380000  
H 25.2120000   14.9530000   24.5760000  
H 24.7530000   16.9300000   19.1140000  
H 21.6780000   17.6720000   19.6150000  
H 25.9470000   16.0060000   22.0810000  
