78
111 
C 22.5210000   12.5380000   24.1170000  
C 22.3040000   11.1820000   23.8950000  
C 21.1750000   10.8010000   23.1420000  
C 20.3540000   11.7760000   22.7560000  
C 20.4760000   13.1490000   23.0100000  
C 21.6130000   13.4930000   23.6780000  
C 20.5290000    9.5400000   22.9130000  
C 19.4060000    9.7790000   22.1310000  
N 19.2990000   11.2310000   22.0780000  
O 18.6940000    7.4850000   21.8690000  
C 18.2690000    8.7540000   21.7880000  
O 17.1410000    9.0780000   21.4960000  
O 21.8390000   14.7540000   24.0150000  
O 23.6530000   12.9840000   24.7450000  
H 22.9010000   10.4340000   24.3980000  
H 20.8600000    8.6290000   23.4120000  
H 19.6890000    7.6150000   21.9390000  
H 18.5310000   11.7910000   21.7660000  
H 21.0690000   15.2810000   23.8130000  
H 23.3250000   13.8530000   25.0200000  
C 19.4860000   14.1690000   22.6240000  
C 18.0900000   14.0110000   22.9680000  
C 17.1870000   14.9720000   22.6150000  
C 17.4400000   16.1250000   21.8380000  
C 18.7710000   16.1800000   21.3580000  
C 19.7590000   15.1920000   21.6480000  
C 17.4550000   13.0840000   23.8250000  
C 16.1210000   13.5510000   23.9210000  
N 16.0370000   14.7820000   23.2470000  
O 15.3470000   11.6620000   24.9440000  
C 15.0480000   12.9140000   24.6300000  
O 13.9420000   13.3890000   24.7810000  
O 19.1500000   17.2430000   20.5880000  
O 21.0070000   15.2310000   21.0580000  
H 17.9820000   12.2180000   24.3020000  
H 16.2520000   11.6000000   24.6020000  
H 15.2170000   15.2720000   23.0670000  
H 18.4220000   17.8570000   20.7380000  
H 20.9770000   15.9880000   20.5670000  
C 16.5060000   17.2550000   21.4790000  
C 16.6530000   18.5770000   22.0160000  
C 15.7350000   19.5150000   21.6570000  
C 14.6220000   19.3760000   20.8130000  
C 14.5110000   18.0890000   20.2520000  
C 15.3710000   17.0060000   20.5820000  
C 17.5190000   19.2230000   22.9930000  
C 17.1150000   20.5580000   23.1430000  
N 16.0670000   20.7510000   22.2420000  
O 18.7280000   21.1640000   24.7660000  
C 17.6750000   21.5560000   24.0140000  
O 17.2050000   22.6770000   24.1450000  
O 13.5130000   17.8220000   19.3780000  
O 15.2560000   15.8130000   19.9110000  
H 18.3380000   18.7170000   23.5810000  
H 18.9880000   20.2680000   24.5470000  
H 15.6330000   21.6120000   21.9460000  
H 13.7700000   17.0080000   18.9430000  
H 15.6340000   14.9880000   20.3100000  
C 13.8150000   20.5700000   20.3950000  
C 14.4140000   21.8040000   19.8750000  
C 13.5970000   22.8810000   19.6060000  
C 12.2300000   22.9020000   19.8470000  
C 11.6240000   21.7470000   20.4860000  
C 12.3950000   20.6230000   20.7130000  
C 15.6940000   22.1060000   19.3170000  
C 15.7050000   23.4030000   18.8150000  
N 14.4000000   23.8930000   19.0730000  
O 17.8370000   23.4000000   17.7860000  
C 16.7420000   24.1350000   18.1040000  
O 16.5890000   25.3100000   17.6960000  
O 10.4290000   21.8200000   21.0390000  
O 11.7340000   19.5810000   21.3480000  
H 16.4530000   21.3490000   19.1250000  
H 17.6850000   22.5290000   18.2120000  
H 13.9680000   24.7400000   18.6820000  
H 10.2120000   20.9160000   21.4000000  
H 12.3320000   18.8160000   21.6140000  
H 11.6340000   23.8110000   19.7180000  
