78
111 
C 11.9180000   18.4140000   26.9870000  
C 10.7310000   19.0290000   26.3610000  
C 10.7050000   18.9170000   24.9190000  
C 11.8640000   18.7200000   24.2390000  
C 13.1030000   18.3430000   24.7650000  
C 13.0710000   18.1400000   26.2110000  
C  9.6920000   19.2120000   23.9780000  
C 10.2930000   19.2100000   22.7290000  
N 11.6910000   18.9750000   22.8860000  
O  8.2990000   19.9600000   21.6780000  
C  9.5320000   19.5810000   21.4630000  
O 10.0450000   19.5600000   20.3880000  
O 14.1540000   17.6270000   26.7750000  
O 11.7890000   18.0540000   28.3410000  
H  9.8540000   19.2520000   26.9870000  
H  8.7080000   19.2010000   24.2600000  
H  8.1670000   19.9330000   22.5750000  
H 12.1510000   18.8150000   22.0910000  
H 14.7500000   17.2610000   26.0620000  
H 12.5320000   17.4040000   28.5380000  
C 14.2870000   17.9110000   23.9990000  
C 15.4840000   18.6050000   24.1370000  
C 16.5950000   18.1950000   23.4880000  
C 16.6890000   17.1490000   22.5120000  
C 15.4160000   16.4800000   22.2540000  
C 14.2860000   16.7980000   23.1100000  
C 15.7790000   19.8500000   24.8290000  
C 17.1120000   20.1730000   24.5460000  
N 17.5450000   19.1950000   23.5920000  
O 17.3670000   22.2310000   25.6510000  
C 17.9540000   21.3030000   24.9220000  
O 19.1230000   21.3300000   24.5260000  
O 15.2590000   15.6390000   21.1710000  
O 13.0320000   16.2260000   22.7870000  
H 15.0400000   20.3920000   25.4390000  
H 16.5370000   21.8030000   25.8850000  
H 18.4840000   19.1970000   23.0980000  
H 16.0840000   15.1230000   21.2280000  
H 13.1430000   15.4020000   22.2610000  
C 17.9070000   16.8870000   21.7060000  
C 18.7010000   15.7430000   21.8860000  
C 19.7690000   15.5230000   21.0590000  
C 20.0630000   16.2760000   19.8860000  
C 19.3120000   17.5030000   19.7650000  
C 18.2460000   17.7700000   20.6480000  
C 18.7670000   14.6900000   22.8550000  
C 19.8820000   13.9070000   22.5770000  
N 20.5320000   14.4440000   21.5010000  
O 19.7270000   12.4510000   24.4780000  
C 20.4480000   12.7080000   23.3690000  
O 21.4140000   12.0630000   23.0450000  
O 19.5010000   18.4450000   18.8350000  
O 17.4840000   18.8920000   20.4400000  
H 17.9940000   14.5100000   23.6240000  
H 18.8720000   12.9130000   24.3950000  
H 21.4000000   14.1260000   21.0720000  
H 18.6570000   18.7760000   18.5560000  
H 16.5690000   18.8310000   20.8490000  
C 21.1870000   15.8890000   18.9570000  
C 21.2050000   14.6250000   18.4340000  
C 22.1970000   14.1740000   17.5950000  
C 23.2510000   15.0200000   17.1710000  
C 23.1840000   16.3750000   17.6300000  
C 22.2420000   16.7500000   18.5980000  
C 20.1830000   13.6140000   18.3730000  
C 20.5460000   12.6280000   17.4660000  
N 21.8560000   12.9440000   17.0590000  
O 18.5240000   11.4230000   17.4890000  
C 19.8040000   11.4310000   17.0680000  
O 20.3620000   10.5450000   16.4130000  
O 24.1130000   17.2160000   17.0780000  
O 22.3700000   18.0090000   19.0970000  
H 19.2300000   13.7730000   18.8700000  
H 18.3980000   12.2720000   17.8070000  
H 22.4030000   12.3620000   16.3640000  
H 24.0370000   18.0770000   17.6150000  
H 21.6010000   18.2390000   19.5820000  
H 24.0620000   14.7010000   16.5390000  
