78
111 
C 13.1890000   13.8500000   16.3920000  
C 12.1240000   13.0060000   16.8470000  
C 12.0150000   12.7880000   18.2230000  
C 12.8530000   13.4270000   19.1230000  
C 13.8360000   14.3820000   18.7250000  
C 13.9540000   14.5880000   17.2930000  
C 11.1330000   11.9140000   18.9870000  
C 11.6710000   11.9760000   20.3150000  
N 12.6640000   12.9400000   20.4000000  
O 10.1690000   10.4050000   21.1960000  
C 11.0470000   11.3700000   21.5300000  
O 11.2340000   11.7450000   22.6700000  
O 14.9190000   15.4050000   16.8030000  
O 13.1960000   14.1280000   15.1050000  
H 11.5220000   12.4990000   16.1240000  
H 10.4540000   11.1970000   18.5690000  
H 10.0640000   10.4870000   20.2070000  
H 12.9460000   13.4280000   21.2400000  
H 15.3480000   15.8700000   17.5100000  
H 13.9510000   14.7140000   14.9940000  
C 14.7810000   15.0040000   19.7140000  
C 16.1810000   14.7300000   19.5680000  
C 17.0700000   15.4350000   20.2940000  
C 16.7070000   16.3190000   21.3240000  
C 15.2920000   16.4400000   21.5730000  
C 14.3980000   15.7670000   20.7890000  
C 17.0130000   13.8620000   18.6780000  
C 18.3640000   14.1820000   18.9120000  
N 18.4340000   15.1230000   19.9190000  
O 19.2820000   12.7020000   17.3160000  
C 19.5200000   13.6780000   18.2440000  
O 20.6520000   13.9220000   18.5490000  
O 14.7780000   17.2650000   22.5770000  
O 13.0810000   16.0350000   20.8490000  
H 16.6560000   13.1030000   18.0060000  
H 18.2790000   12.6650000   17.2780000  
H 19.2860000   15.6180000   20.2610000  
H 15.3850000   17.8190000   23.0820000  
H 12.7730000   16.4970000   21.6250000  
C 17.7400000   16.9310000   22.1630000  
C 17.9600000   18.3360000   22.0510000  
C 18.9260000   18.9150000   22.9140000  
C 19.6370000   18.2020000   23.9030000  
C 19.3080000   16.8690000   24.0840000  
C 18.4120000   16.2150000   23.1750000  
C 17.2860000   19.4160000   21.3030000  
C 18.0070000   20.5970000   21.7370000  
N 19.0240000   20.2390000   22.6140000  
O 16.6860000   22.0990000   20.4660000  
C 17.6780000   21.9550000   21.3200000  
O 18.2060000   22.9860000   21.7280000  
O 19.7840000   16.1850000   25.1600000  
O 18.1350000   14.9240000   23.3910000  
H 16.4140000   19.3070000   20.7000000  
H 16.2540000   21.2510000   20.4380000  
H 19.8130000   20.8230000   22.8450000  
H 19.5160000   15.2690000   25.0370000  
H 17.3630000   14.6470000   22.9890000  
C 20.6240000   18.9370000   24.7450000  
C 20.2760000   19.8770000   25.7470000  
C 21.2090000   20.4780000   26.5240000  
C 22.5860000   20.3180000   26.3080000  
C 23.0390000   19.4970000   25.2520000  
C 22.0130000   18.7870000   24.5510000  
C 19.0170000   20.4170000   26.1140000  
C 19.2820000   21.4610000   27.0100000  
N 20.6570000   21.4370000   27.3740000  
O 17.0490000   22.3130000   26.8450000  
C 18.2140000   22.3520000   27.5250000  
O 18.4270000   23.2160000   28.3590000  
O 24.3180000   19.1080000   25.1910000  
O 22.4760000   17.9150000   23.5870000  
H 18.0830000   20.2370000   25.6440000  
H 17.0950000   21.6690000   26.1290000  
H 21.2760000   22.0870000   27.8970000  
H 24.2520000   18.4600000   24.4020000  
H 21.7210000   17.6540000   23.0240000  
H 23.3190000   20.8650000   26.8650000  
