78
111 
C 15.8850000   17.8900000   29.0800000  
C 14.5110000   18.1890000   29.3010000  
C 13.6730000   18.2180000   28.1770000  
C 14.1590000   18.1750000   26.9090000  
C 15.4680000   17.7950000   26.5970000  
C 16.3280000   17.7200000   27.7160000  
C 12.2300000   18.2660000   28.1120000  
C 11.9420000   18.1350000   26.7580000  
N 13.1220000   18.0380000   26.0030000  
O  9.5380000   18.2570000   26.7910000  
C 10.6120000   18.0430000   26.0540000  
O 10.4300000   17.7760000   24.8380000  
O 17.6450000   17.4360000   27.4760000  
O 16.8390000   17.7720000   30.0180000  
H 14.1080000   18.3180000   30.2880000  
H 11.5980000   18.2830000   28.9610000  
H  9.9410000   18.2730000   27.6660000  
H 13.0690000   17.9030000   25.0250000  
H 17.7410000   17.3130000   26.5050000  
H 17.6300000   17.5010000   29.5320000  
C 15.9420000   17.5420000   25.2180000  
C 16.1570000   18.6380000   24.2820000  
C 16.6060000   18.3900000   23.0540000  
C 17.0120000   17.1200000   22.6030000  
C 16.9800000   16.0090000   23.5630000  
C 16.4730000   16.2550000   24.8580000  
C 15.8300000   20.0390000   24.3110000  
C 16.3440000   20.6480000   23.1580000  
N 16.7520000   19.5780000   22.3110000  
O 15.7280000   22.9410000   23.7960000  
C 16.2950000   22.1030000   22.8550000  
O 16.6110000   22.5060000   21.7640000  
O 17.3780000   14.8110000   23.1470000  
O 16.3590000   15.2140000   25.7110000  
H 15.4030000   20.5430000   25.1750000  
H 15.5960000   22.3580000   24.5990000  
H 17.0290000   19.7230000   21.3890000  
H 17.5380000   14.7960000   22.2370000  
H 16.8500000   14.4570000   25.4220000  
C 17.4560000   16.9730000   21.2600000  
C 18.7600000   16.6010000   20.8170000  
C 19.0780000   16.4100000   19.4960000  
C 18.1470000   16.5690000   18.4490000  
C 16.8140000   16.9180000   18.8460000  
C 16.4960000   17.0590000   20.2190000  
C 19.9700000   16.2840000   21.5890000  
C 20.8890000   15.7070000   20.6390000  
N 20.2780000   15.8440000   19.3770000  
O 22.6310000   15.2990000   22.2080000  
C 22.2240000   15.1290000   20.9500000  
O 23.0060000   14.6590000   20.1160000  
O 15.9000000   17.0410000   17.8280000  
O 15.1430000   17.1370000   20.5290000  
H 20.2460000   16.3790000   22.6820000  
H 21.8590000   15.7420000   22.6130000  
H 20.6010000   15.2960000   18.5280000  
H 15.1440000   17.4770000   18.2010000  
H 15.0250000   17.6230000   21.3100000  
C 18.4630000   16.1620000   17.0660000  
C 18.7220000   14.8460000   16.7570000  
C 19.0550000   14.4700000   15.4850000  
C 19.1980000   15.2960000   14.3980000  
C 19.0080000   16.6770000   14.6570000  
C 18.7140000   17.0460000   15.9490000  
C 18.6340000   13.6960000   17.6020000  
C 19.0180000   12.5960000   16.8330000  
N 19.2620000   13.1020000   15.5470000  
O 19.0960000   11.0010000   18.6200000  
C 19.2450000   11.1370000   17.2970000  
O 19.5680000   10.1660000   16.6300000  
O 19.1730000   17.4910000   13.6210000  
O 18.5320000   18.4060000   16.1820000  
H 18.1040000   13.7170000   18.5700000  
H 18.7460000   11.8670000   18.7700000  
H 19.3960000   12.5670000   14.6670000  
H 19.0580000   18.4340000   13.9490000  
H 18.0480000   18.4640000   17.0140000  
H 19.4880000   14.9150000   13.4120000  
