78
111 
C 11.7190000   14.9170000   17.0410000  
C 10.8670000   13.9540000   17.6410000  
C 11.3010000   13.4350000   18.9070000  
C 12.4250000   13.9370000   19.4790000  
C 13.1370000   15.0570000   19.0060000  
C 12.7460000   15.5990000   17.7810000  
C 10.8790000   12.2920000   19.7970000  
C 11.8320000   12.2680000   20.8620000  
N 12.7690000   13.2330000   20.6110000  
O 10.8920000   10.4380000   22.1470000  
C 11.8850000   11.4030000   22.0540000  
O 12.7490000   11.5360000   22.8870000  
O 13.4400000   16.6220000   17.2510000  
O 11.4100000   15.2970000   15.7420000  
H 10.1720000   13.4700000   17.0620000  
H 10.0700000   11.5370000   19.6290000  
H 10.1820000   10.8420000   21.5540000  
H 13.5090000   13.4660000   21.2680000  
H 14.1210000   16.8230000   17.9470000  
H 12.1950000   15.7810000   15.4230000  
C 14.4100000   15.5280000   19.7130000  
C 15.6590000   15.2990000   19.1620000  
C 16.7440000   15.8520000   19.8140000  
C 16.7380000   16.5790000   20.9950000  
C 15.4630000   16.8590000   21.4930000  
C 14.2850000   16.2920000   20.9280000  
C 16.1930000   14.5440000   18.0640000  
C 17.5890000   14.6590000   18.0980000  
N 17.9330000   15.4790000   19.2020000  
O 18.1820000   13.2710000   16.2140000  
C 18.6560000   14.0180000   17.2550000  
O 19.8900000   14.2050000   17.4250000  
O 15.3210000   17.5580000   22.7360000  
O 13.0280000   16.5390000   21.4850000  
H 15.5910000   14.1460000   17.2590000  
H 17.2050000   13.3520000   16.1680000  
H 18.9150000   15.8020000   19.3760000  
H 16.1320000   18.0210000   22.9070000  
H 13.2780000   17.1330000   22.2160000  
C 17.9420000   17.0900000   21.6990000  
C 18.2620000   18.4140000   21.8640000  
C 19.3310000   18.8200000   22.6670000  
C 20.0480000   17.9820000   23.4920000  
C 19.7150000   16.6100000   23.3620000  
C 18.6580000   16.1590000   22.5090000  
C 17.6920000   19.6260000   21.3530000  
C 18.4510000   20.6810000   21.8670000  
N 19.3670000   20.1860000   22.7320000  
O 17.1790000   22.5720000   20.9370000  
C 18.2320000   22.1520000   21.6690000  
O 18.9140000   23.0070000   22.1640000  
O 20.2930000   15.6770000   24.2050000  
O 18.2440000   14.8090000   22.5950000  
H 16.8940000   19.8410000   20.7270000  
H 16.6080000   21.8480000   20.8500000  
H 20.0850000   20.7950000   23.1090000  
H 19.6250000   14.9940000   24.4200000  
H 17.3050000   14.7210000   22.6020000  
C 21.1080000   18.4720000   24.4000000  
C 20.7220000   19.1080000   25.6120000  
C 21.6390000   19.5040000   26.4860000  
C 23.0080000   19.3710000   26.2790000  
C 23.3930000   18.8570000   25.0410000  
C 22.4770000   18.3340000   24.1140000  
C 19.4890000   19.3700000   26.2220000  
C 19.6710000   20.0900000   27.3920000  
N 21.1000000   20.0510000   27.6420000  
O 17.3780000   20.8590000   27.4400000  
C 18.5990000   20.7700000   28.1070000  
O 18.6470000   21.0640000   29.2690000  
O 24.7320000   18.5710000   24.8530000  
O 22.9080000   17.7250000   22.9550000  
H 18.5010000   19.0850000   25.8590000  
H 17.5130000   20.5040000   26.5700000  
H 21.5710000   20.3150000   28.5100000  
H 24.6840000   18.1670000   23.9680000  
H 22.1580000   17.1670000   22.6370000  
H 23.7120000   19.5880000   27.0510000  
