78
111 
C 18.6420000   11.5180000   26.6410000  
C 19.9730000   11.4980000   27.2090000  
C 20.8600000   12.5170000   26.7550000  
C 20.4330000   13.3810000   25.7650000  
C 19.1260000   13.5860000   25.3480000  
C 18.2710000   12.5520000   25.7380000  
C 22.2140000   12.8610000   27.1570000  
C 22.5800000   13.9210000   26.2910000  
N 21.4650000   14.3130000   25.5050000  
O 24.7610000   14.2700000   27.1700000  
C 23.8840000   14.7090000   26.2980000  
O 24.0920000   15.6680000   25.6150000  
O 16.9610000   12.6900000   25.3960000  
O 17.7380000   10.6050000   27.0080000  
H 20.2420000   10.6840000   27.9520000  
H 22.7440000   12.3130000   28.0030000  
H 24.3470000   13.4960000   27.6030000  
H 21.5760000   15.1240000   24.8570000  
H 16.8760000   13.4360000   24.7750000  
H 17.0180000   10.7770000   26.4120000  
C 18.6910000   14.6000000   24.3420000  
C 18.5820000   14.2210000   22.9720000  
C 18.0790000   15.0960000   22.0880000  
C 17.5120000   16.3680000   22.3920000  
C 17.6270000   16.7610000   23.7290000  
C 18.0780000   15.8640000   24.6600000  
C 18.7020000   12.9670000   22.2240000  
C 18.0120000   13.1100000   21.0420000  
N 17.7450000   14.4680000   20.9200000  
O 17.9340000   10.8840000   20.1800000  
C 17.7150000   12.1920000   19.9410000  
O 17.3310000   12.4610000   18.8270000  
O 17.1510000   18.0450000   24.1000000  
O 18.0070000   16.2580000   25.9240000  
H 19.1570000   12.1180000   22.6550000  
H 18.2220000   10.7400000   21.1120000  
H 17.5520000   14.9590000   20.0920000  
H 16.5980000   18.4480000   23.4380000  
H 17.9330000   17.2120000   25.9360000  
C 16.8610000   17.1270000   21.2820000  
C 15.4810000   17.5390000   21.2480000  
C 15.0560000   18.4280000   20.2820000  
C 15.7830000   18.8340000   19.1450000  
C 17.1570000   18.4820000   19.1440000  
C 17.7100000   17.7040000   20.2680000  
C 14.3700000   17.3360000   22.1230000  
C 13.2750000   18.0030000   21.6430000  
N 13.7290000   18.6390000   20.4680000  
O 11.7950000   17.4210000   23.4300000  
C 12.0110000   18.2110000   22.3880000  
O 11.1180000   18.8830000   22.0010000  
O 17.9320000   18.9170000   18.1130000  
O 19.0180000   17.4110000   20.2170000  
H 14.4240000   16.6830000   23.0510000  
H 12.6940000   17.0180000   23.6460000  
H 13.2330000   19.2500000   19.7930000  
H 18.7560000   18.5360000   18.3720000  
H 19.2040000   16.8590000   20.9910000  
C 15.2160000   19.6240000   18.0140000  
C 14.6490000   20.9220000   18.2540000  
C 14.4050000   21.9000000   17.3100000  
C 14.4470000   21.5650000   15.9450000  
C 14.8510000   20.3000000   15.6140000  
C 15.2710000   19.3750000   16.6240000  
C 14.5200000   21.6170000   19.5410000  
C 13.9730000   22.8880000   19.2470000  
N 13.9800000   23.0480000   17.8550000  
O 13.8740000   23.7330000   21.4710000  
C 13.7000000   23.9950000   20.1860000  
O 13.2830000   25.0530000   19.6980000  
O 14.8100000   19.9760000   14.3260000  
O 15.5690000   18.0900000   16.1650000  
H 14.5710000   21.1350000   20.4590000  
H 14.2630000   22.8520000   21.4120000  
H 13.5440000   23.8070000   17.3680000  
H 14.9550000   19.0160000   14.2710000  
H 15.8040000   17.6290000   17.0410000  
H 14.0480000   22.1980000   15.1150000  
