78
111 
C 19.3400000    9.8360000   22.8730000  
C 19.3060000    9.0610000   21.6680000  
C 19.1190000    9.7380000   20.4710000  
C 18.8980000   11.0800000   20.4470000  
C 18.9400000   11.9450000   21.5690000  
C 19.0700000   11.2330000   22.8440000  
C 18.9830000    9.2570000   19.1310000  
C 18.6990000   10.4110000   18.3360000  
N 18.5720000   11.5580000   19.1630000  
O 18.2870000    9.1530000   16.2960000  
C 18.3880000   10.3980000   16.8730000  
O 18.1910000   11.4190000   16.3080000  
O 19.0050000   11.8490000   24.1110000  
O 19.5680000    9.2490000   24.0780000  
H 19.5240000    8.0320000   21.7560000  
H 19.1900000    8.2630000   18.6760000  
H 18.5630000    8.6860000   17.0840000  
H 18.3730000   12.5090000   18.9320000  
H 19.1090000   12.8100000   24.0330000  
H 19.7150000    9.9660000   24.6380000  
C 18.5090000   13.4360000   21.5190000  
C 17.3140000   13.8130000   22.1380000  
C 16.8920000   15.0840000   22.0610000  
C 17.3920000   16.0850000   21.3090000  
C 18.6080000   15.7330000   20.6290000  
C 19.1660000   14.4580000   20.7620000  
C 16.4440000   13.1980000   23.1410000  
C 15.5240000   14.1420000   23.6100000  
N 15.7980000   15.3330000   22.8730000  
O 14.2420000   12.7900000   25.1020000  
C 14.3670000   14.0130000   24.5220000  
O 13.5370000   14.8580000   24.6560000  
O 19.2080000   16.6740000   19.8540000  
O 20.3460000   14.1750000   20.1590000  
H 16.6780000   12.2570000   23.6420000  
H 14.8580000   12.1880000   24.6360000  
H 15.2830000   16.2130000   22.8900000  
H 19.2110000   17.5180000   20.3220000  
H 20.7210000   14.8830000   19.6520000  
C 16.7900000   17.4820000   21.3920000  
C 16.9830000   18.2730000   22.5510000  
C 16.3260000   19.4770000   22.6600000  
C 15.5080000   20.0690000   21.6630000  
C 15.3700000   19.2900000   20.4910000  
C 15.9660000   18.0430000   20.3900000  
C 17.7660000   18.1470000   23.7690000  
C 17.6180000   19.3160000   24.4900000  
N 16.6810000   20.0960000   23.8150000  
O 19.1870000   18.6330000   26.2000000  
C 18.2750000   19.5670000   25.8160000  
O 17.8920000   20.4260000   26.5880000  
O 14.5360000   19.7180000   19.5140000  
O 15.7530000   17.3330000   19.2850000  
H 18.5010000   17.3040000   23.9160000  
H 19.5100000   18.3800000   25.3650000  
H 16.2590000   20.9220000   24.1970000  
H 14.7300000   19.1610000   18.7680000  
H 16.5000000   16.6990000   19.0340000  
C 14.8780000   21.4470000   21.8550000  
C 15.6970000   22.6110000   22.1000000  
C 15.2360000   23.8340000   22.2710000  
C 13.8550000   24.1080000   22.0250000  
C 12.9630000   23.0670000   21.6660000  
C 13.5120000   21.7760000   21.5960000  
C 17.1610000   22.7250000   22.0960000  
C 17.4980000   24.0490000   22.2740000  
N 16.3000000   24.7440000   22.5280000  
O 19.7890000   23.7570000   21.9640000  
C 18.8160000   24.6190000   22.2960000  
O 19.0840000   25.7910000   22.5650000  
O 11.6870000   23.2810000   21.3280000  
O 12.5820000   20.7340000   21.4600000  
H 17.9120000   21.9400000   21.9980000  
H 19.1810000   23.1210000   21.7180000  
H 16.1990000   25.7070000   22.6960000  
H 11.3870000   22.4060000   21.0060000  
H 13.0120000   19.8920000   21.7090000  
H 13.5300000   25.1510000   22.1510000  
