78
111 
C 11.5960000   18.7780000   26.5130000  
C 10.4490000   19.1080000   25.7900000  
C 10.4210000   18.8750000   24.4050000  
C 11.5210000   18.4090000   23.7830000  
C 12.7570000   18.0800000   24.4460000  
C 12.7320000   18.3530000   25.8130000  
C  9.4530000   19.0990000   23.2770000  
C 10.0530000   18.6010000   22.1180000  
N 11.3180000   18.1420000   22.4230000  
O  8.2230000   19.0840000   20.6030000  
C  9.4580000   18.5550000   20.7080000  
O 10.0470000   18.1530000   19.7160000  
O 13.8210000   18.1720000   26.6300000  
O 11.5810000   18.8870000   27.8620000  
H  9.5250000   19.3440000   26.3190000  
H  8.4800000   19.5150000   23.3230000  
H  7.8980000   19.2360000   21.4760000  
H 12.0900000   17.8050000   21.7370000  
H 14.5790000   18.0010000   26.0690000  
H 12.4160000   19.1200000   28.3000000  
C 14.0690000   17.6810000   23.7410000  
C 15.2390000   18.4460000   23.9130000  
C 16.3160000   18.0860000   23.1970000  
C 16.3140000   17.1810000   22.0670000  
C 15.1850000   16.2870000   21.9720000  
C 14.0730000   16.5920000   22.7790000  
C 15.3560000   19.8090000   24.4450000  
C 16.5360000   20.2660000   23.9490000  
N 17.2340000   19.2120000   23.3070000  
O 16.2050000   22.5400000   24.6490000  
C 17.0900000   21.6130000   24.1300000  
O 18.2500000   21.8140000   23.7650000  
O 15.2620000   15.1350000   21.2720000  
O 12.9620000   15.7660000   22.5940000  
H 14.6670000   20.3410000   25.1080000  
H 15.3330000   22.1450000   24.8210000  
H 18.0910000   19.2160000   22.7600000  
H 15.9560000   15.3050000   20.6180000  
H 13.3910000   15.0090000   22.1430000  
C 17.5660000   16.9590000   21.3490000  
C 18.6340000   16.1370000   21.9030000  
C 19.7270000   15.7900000   21.2180000  
C 20.0570000   16.2750000   19.8930000  
C 19.0680000   17.1240000   19.3090000  
C 17.8690000   17.4460000   20.0380000  
C 18.7990000   15.4650000   23.2420000  
C 20.0780000   14.8230000   23.1710000  
N 20.5740000   15.0630000   21.9190000  
O 19.9660000   13.9450000   25.4340000  
C 20.7290000   14.0990000   24.3050000  
O 21.8820000   13.7000000   24.3100000  
O 19.1640000   17.6630000   18.0310000  
O 16.8970000   18.2170000   19.4280000  
H 18.2940000   15.6150000   24.2700000  
H 19.2510000   14.5180000   25.2040000  
H 21.4580000   14.7180000   21.5860000  
H 18.3980000   18.1800000   17.8010000  
H 16.1350000   18.2710000   20.0380000  
C 21.3300000   15.9000000   19.2440000  
C 21.7360000   14.5910000   19.0690000  
C 22.9600000   14.2340000   18.5390000  
C 23.8070000   15.2560000   18.0890000  
C 23.4490000   16.6150000   18.3090000  
C 22.2230000   16.9350000   18.8650000  
C 20.9640000   13.3550000   19.0810000  
C 21.7420000   12.2970000   18.6290000  
N 23.0220000   12.8500000   18.3470000  
O 20.1060000   10.5440000   18.8670000  
C 21.3740000   10.8970000   18.4090000  
O 22.1100000    9.9950000   18.0450000  
O 24.3050000   17.5800000   17.8860000  
O 21.8190000   18.2130000   18.9070000  
H 19.9370000   13.2670000   19.3450000  
H 19.7380000   11.2970000   19.3170000  
H 23.9100000   12.4200000   18.1100000  
H 23.8230000   18.4810000   17.9570000  
H 20.8190000   18.1960000   18.8870000  
H 24.7440000   14.9480000   17.5930000  
