78
111 
C 18.9340000   13.8620000   28.4160000  
C 18.5740000   14.6970000   29.4550000  
C 17.9220000   15.8890000   29.2010000  
C 17.6420000   16.2550000   27.9400000  
C 18.0510000   15.5060000   26.8190000  
C 18.6180000   14.2290000   27.0730000  
C 17.3840000   16.9210000   30.0940000  
C 17.0210000   17.9510000   29.2800000  
N 17.0550000   17.5180000   27.8990000  
O 16.5870000   19.4880000   31.0490000  
C 16.6410000   19.2770000   29.7130000  
O 16.1670000   20.1080000   28.9830000  
O 18.9290000   13.4880000   25.9860000  
O 19.5390000   12.6530000   28.6890000  
H 18.9130000   14.5220000   30.4450000  
H 17.5030000   16.9500000   31.2590000  
H 16.8280000   18.6480000   31.4750000  
H 16.8560000   18.0670000   27.0160000  
H 18.9120000   14.0600000   25.2290000  
H 19.7280000   12.2080000   27.8380000  
C 17.8190000   15.9040000   25.4220000  
C 18.8520000   16.0600000   24.4660000  
C 18.5320000   16.5320000   23.2140000  
C 17.2460000   16.7580000   22.7110000  
C 16.2020000   16.4280000   23.6800000  
C 16.5250000   15.9790000   24.9440000  
C 20.3360000   15.9250000   24.4660000  
C 20.7340000   16.3190000   23.1850000  
N 19.5980000   16.6630000   22.4250000  
O 23.0640000   15.8670000   23.3740000  
C 22.0850000   16.4060000   22.6560000  
O 22.2590000   16.8910000   21.5820000  
O 14.8820000   16.7180000   23.3790000  
O 15.4640000   15.7740000   25.8310000  
H 20.9720000   15.3440000   25.1890000  
H 22.6500000   15.5240000   24.1860000  
H 19.4760000   17.0000000   21.4510000  
H 14.8280000   16.9590000   22.4510000  
H 14.7210000   15.5470000   25.2500000  
C 16.9250000   17.2230000   21.3040000  
C 16.3370000   16.3970000   20.3580000  
C 16.2230000   16.8890000   19.1230000  
C 16.7140000   18.1260000   18.6250000  
C 17.2580000   18.9830000   19.5780000  
C 17.2930000   18.5620000   20.9350000  
C 15.8900000   15.0480000   20.3250000  
C 15.5660000   14.7590000   18.9730000  
N 15.7350000   15.9420000   18.2690000  
O 14.7730000   12.4840000   19.1160000  
C 15.0870000   13.5360000   18.3020000  
O 14.8730000   13.5170000   17.1170000  
O 17.8160000   20.1790000   19.1530000  
O 18.0090000   19.2990000   21.8090000  
H 15.6040000   14.5210000   21.2050000  
H 15.0860000   12.6670000   20.0010000  
H 15.5160000   16.1740000   17.3190000  
H 18.2330000   20.4930000   19.9590000  
H 17.9670000   18.7350000   22.5650000  
C 16.6700000   18.3960000   17.1440000  
C 15.4680000   18.3750000   16.4620000  
C 15.4440000   18.4900000   15.0360000  
C 16.6260000   18.5380000   14.3490000  
C 17.8970000   18.5220000   14.9830000  
C 17.9250000   18.4250000   16.3870000  
C 14.0980000   18.1130000   16.8210000  
C 13.4010000   18.1160000   15.6190000  
N 14.2170000   18.3970000   14.5110000  
O 11.1210000   17.7320000   16.4990000  
C 11.8570000   17.9190000   15.4560000  
O 11.3890000   17.8410000   14.3260000  
O 19.0580000   18.5270000   14.2080000  
O 19.1260000   18.4660000   17.0290000  
H 13.6470000   17.8940000   17.7790000  
H 11.6650000   17.8100000   17.2790000  
H 13.9760000   18.5890000   13.5470000  
H 19.7370000   18.9370000   14.8320000  
H 18.9530000   18.5840000   17.9640000  
H 16.5330000   18.6770000   13.2060000  
