78
111 
C 17.4240000   16.1860000   29.3950000  
C 18.6630000   16.7240000   29.8550000  
C 19.6440000   16.9940000   28.8980000  
C 19.2800000   16.9720000   27.5160000  
C 18.0170000   16.6340000   27.0110000  
C 17.0800000   16.2100000   28.0330000  
C 20.9820000   17.5530000   28.9050000  
C 21.3070000   17.8130000   27.5620000  
N 20.2590000   17.4370000   26.6900000  
O 23.4320000   18.6520000   28.0030000  
C 22.5630000   18.4020000   27.0370000  
O 22.7530000   18.7340000   25.8950000  
O 15.7990000   15.8030000   27.6500000  
O 16.5400000   15.7660000   30.3950000  
H 18.8960000   16.6950000   31.0010000  
H 21.5400000   17.8370000   29.7730000  
H 23.1770000   18.0350000   28.7250000  
H 20.2330000   17.4020000   25.6740000  
H 15.7820000   15.8660000   26.7080000  
H 15.6870000   15.4060000   29.9870000  
C 17.6570000   16.6250000   25.5360000  
C 17.2720000   15.4480000   24.8780000  
C 17.0690000   15.4830000   23.5430000  
C 17.1920000   16.5660000   22.6690000  
C 17.5500000   17.7880000   23.3250000  
C 17.8270000   17.8210000   24.7190000  
C 17.1780000   14.0880000   25.2560000  
C 16.8920000   13.3560000   24.1500000  
N 16.9130000   14.2230000   23.0890000  
O 16.8060000   11.2460000   25.3290000  
C 16.8450000   11.8890000   24.1530000  
O 16.7170000   11.2320000   23.1210000  
O 17.6050000   18.8880000   22.5850000  
O 18.1790000   19.0380000   25.2380000  
H 17.2820000   13.7170000   26.3190000  
H 16.9150000   11.8980000   26.0220000  
H 16.8620000   13.8960000   22.1610000  
H 17.0760000   18.6630000   21.7660000  
H 18.3470000   19.5880000   24.3980000  
C 17.0190000   16.4120000   21.1380000  
C 15.8260000   16.8560000   20.5660000  
C 15.6190000   16.6970000   19.1710000  
C 16.6280000   16.3370000   18.2510000  
C 17.8750000   15.9240000   18.7710000  
C 18.0200000   15.9450000   20.2300000  
C 14.5780000   17.3990000   21.0740000  
C 13.7300000   17.6080000   19.9690000  
N 14.4360000   17.2870000   18.7960000  
O 11.9110000   18.6280000   21.3090000  
C 12.4880000   18.3990000   20.0860000  
O 11.9920000   18.9180000   19.1710000  
O 18.9050000   15.5010000   17.9270000  
O 19.1840000   15.3730000   20.6990000  
H 14.3790000   17.5450000   22.0900000  
H 12.3850000   18.1030000   21.9380000  
H 14.0040000   17.4980000   17.8550000  
H 19.7580000   15.3880000   18.3110000  
H 19.1590000   15.6480000   21.6220000  
C 16.3610000   16.4980000   16.7500000  
C 16.0760000   17.7770000   16.1110000  
C 15.8110000   17.9000000   14.7300000  
C 15.8310000   16.7780000   13.9170000  
C 16.1320000   15.4800000   14.4710000  
C 16.4090000   15.3820000   15.8370000  
C 15.8650000   19.0790000   16.6490000  
C 15.5160000   19.9500000   15.6320000  
N 15.4770000   19.1590000   14.3740000  
O 15.3630000   21.9820000   16.9010000  
C 15.1080000   21.3520000   15.7260000  
O 14.6350000   21.9420000   14.7590000  
O 16.3050000   14.3020000   13.7140000  
O 16.8540000   14.1250000   16.3460000  
H 15.8440000   19.3750000   17.6770000  
H 15.9840000   21.4100000   17.3490000  
H 15.3050000   19.5240000   13.4030000  
H 16.6290000   13.5060000   14.2260000  
H 17.4210000   14.1820000   17.1130000  
H 15.6920000   16.8600000   12.8550000  
