78
111 
C 10.0790000   18.3840000   20.4050000  
C  9.2370000   17.2980000   20.1360000  
C  9.7570000   16.0200000   20.2970000  
C 11.0630000   15.8470000   20.6500000  
C 12.0060000   16.8820000   20.7620000  
C 11.4410000   18.1930000   20.6800000  
C  9.1440000   14.7020000   20.2040000  
C 10.1680000   13.7960000   20.5720000  
N 11.3360000   14.4830000   20.8180000  
O  8.9320000   11.8190000   20.1670000  
C 10.1260000   12.2990000   20.5650000  
O 10.9710000   11.5750000   20.9700000  
O 12.1740000   19.1910000   21.1780000  
O  9.5310000   19.6250000   20.5240000  
H  8.2130000   17.4170000   19.9180000  
H  8.1460000   14.4130000   19.8840000  
H  8.4590000   12.4850000   19.6460000  
H 12.2260000   14.1260000   21.1660000  
H 13.0140000   18.7910000   21.5810000  
H 10.2070000   20.1240000   21.0090000  
C 13.4850000   16.7110000   20.9390000  
C 14.4590000   16.9260000   19.9640000  
C 15.7840000   16.8820000   20.2830000  
C 16.3650000   16.5480000   21.5340000  
C 15.3620000   16.1170000   22.4480000  
C 14.0050000   16.0740000   22.0990000  
C 14.3900000   17.6020000   18.6840000  
C 15.7080000   17.9240000   18.3020000  
N 16.5860000   17.4060000   19.2460000  
O 15.0290000   19.0590000   16.3560000  
C 16.0410000   18.6730000   17.0890000  
O 17.1770000   18.9750000   16.7040000  
O 15.7960000   15.7220000   23.7070000  
O 13.1500000   15.6450000   23.0820000  
H 13.5060000   17.9010000   18.0740000  
H 14.2580000   18.7000000   16.8190000  
H 17.5520000   17.5750000   19.2850000  
H 16.7670000   15.4880000   23.6680000  
H 13.6290000   15.3260000   23.8830000  
C 17.8550000   16.5670000   21.7740000  
C 18.4150000   17.3700000   22.8330000  
C 19.7370000   17.4450000   22.9490000  
C 20.6850000   16.7930000   22.1720000  
C 20.1190000   15.9070000   21.2370000  
C 18.7550000   15.7770000   21.0570000  
C 17.7850000   18.2800000   23.7570000  
C 18.8520000   19.1240000   24.1630000  
N 20.0440000   18.5470000   23.7410000  
O 17.4590000   20.7300000   25.2200000  
C 18.7350000   20.3500000   24.9840000  
O 19.7570000   20.8260000   25.5480000  
O 20.8860000   15.1840000   20.4090000  
O 18.3440000   14.9220000   20.0960000  
H 16.6800000   18.3610000   24.0430000  
H 16.8970000   20.1280000   24.7820000  
H 20.9920000   18.9550000   23.9500000  
H 20.2750000   14.4830000   20.0650000  
H 17.4330000   15.0150000   19.9640000  
C 22.1220000   16.9820000   22.3570000  
C 22.7050000   16.7150000   23.6070000  
C 24.0050000   17.0580000   23.8480000  
C 24.9010000   17.5160000   22.8710000  
C 24.3420000   17.7990000   21.6140000  
C 22.9820000   17.3760000   21.3340000  
C 22.2290000   16.0870000   24.8200000  
C 23.2740000   16.1940000   25.7960000  
N 24.3910000   16.7880000   25.1460000  
O 22.1980000   14.8490000   27.4150000  
C 23.2710000   15.6610000   27.1490000  
O 24.1960000   15.8420000   27.9660000  
O 25.2350000   18.2720000   20.6700000  
O 22.5900000   17.4000000   20.0410000  
H 21.2010000   15.7650000   25.0440000  
H 21.5750000   14.9060000   26.6680000  
H 25.3350000   16.9490000   25.5130000  
H 24.7370000   18.3490000   19.8370000  
H 21.8810000   16.7130000   20.0400000  
H 25.9390000   17.6580000   23.0600000  
