78
111 
C 18.7070000   12.1710000   27.3200000  
C 19.0440000   12.8090000   28.5270000  
C 19.0560000   14.2290000   28.5670000  
C 18.8230000   14.9410000   27.4310000  
C 18.4950000   14.3710000   26.1520000  
C 18.3940000   12.9120000   26.1430000  
C 19.5060000   15.0970000   29.6110000  
C 19.5840000   16.3400000   28.9810000  
N 19.1120000   16.2590000   27.6230000  
O 20.5800000   17.5520000   30.7980000  
C 20.1030000   17.5880000   29.5320000  
O 20.1810000   18.7060000   28.9570000  
O 18.0340000   12.3010000   24.9480000  
O 18.7960000   10.8860000   27.3680000  
H 19.3850000   12.1970000   29.3710000  
H 19.7060000   14.8300000   30.7080000  
H 20.5890000   16.6520000   31.2380000  
H 19.2210000   16.8440000   26.8340000  
H 17.8430000   12.9280000   24.2340000  
H 18.4960000   10.6100000   26.4610000  
C 18.3290000   15.2270000   24.9270000  
C 19.0080000   14.9810000   23.6940000  
C 18.6630000   15.5220000   22.5320000  
C 17.6520000   16.5500000   22.3570000  
C 17.0390000   16.9330000   23.6180000  
C 17.3200000   16.2910000   24.8090000  
C 20.1130000   14.0680000   23.3710000  
C 20.3870000   14.2870000   21.9820000  
N 19.4280000   15.1680000   21.4750000  
O 22.2550000   12.8080000   21.8980000  
C 21.5280000   13.6530000   21.1870000  
O 21.7530000   13.8280000   20.0250000  
O 16.2460000   18.0440000   23.5560000  
O 16.5810000   16.6990000   25.9430000  
H 20.7000000   13.4750000   24.0780000  
H 21.8030000   12.8200000   22.7620000  
H 19.4300000   15.5650000   20.5920000  
H 16.3430000   18.2780000   22.5900000  
H 16.0910000   17.5180000   25.6930000  
C 17.2480000   17.1330000   20.9890000  
C 15.9830000   16.8060000   20.4240000  
C 15.5990000   17.3870000   19.2640000  
C 16.3700000   18.2870000   18.4990000  
C 17.6620000   18.5970000   19.0750000  
C 18.1230000   17.9190000   20.2670000  
C 14.8630000   16.1100000   20.9630000  
C 13.8100000   16.2800000   20.0240000  
N 14.2990000   17.0580000   18.8960000  
O 12.3950000   14.7530000   21.2370000  
C 12.4640000   15.7370000   20.2100000  
O 11.5450000   15.9480000   19.4310000  
O 18.4470000   19.5480000   18.4940000  
O 19.4060000   18.2120000   20.7110000  
H 14.8740000   15.5750000   21.9220000  
H 13.3060000   14.6580000   21.3740000  
H 13.8040000   17.3550000   18.0540000  
H 19.2470000   19.6390000   19.0200000  
H 19.4660000   17.6990000   21.4880000  
C 15.8970000   18.9080000   17.1770000  
C 14.7540000   19.7220000   17.1400000  
C 14.2470000   20.0670000   15.9260000  
C 14.9240000   19.7870000   14.7110000  
C 16.0960000   19.0010000   14.7560000  
C 16.5350000   18.4580000   15.9460000  
C 13.9100000   20.4120000   18.1440000  
C 13.0200000   21.2560000   17.4560000  
N 13.1420000   20.9590000   16.0810000  
O 11.9440000   22.3030000   19.3420000  
C 12.0590000   22.2090000   17.9890000  
O 11.4050000   22.9620000   17.2820000  
O 16.7920000   18.7500000   13.6440000  
O 17.5280000   17.4910000   15.9190000  
H 14.0500000   20.4720000   19.2250000  
H 12.4650000   21.4900000   19.6090000  
H 12.5830000   21.3650000   15.3030000  
H 17.5530000   18.1680000   13.8520000  
H 18.0690000   17.7190000   16.6830000  
H 14.5470000   20.3000000   13.8570000  
