78
111 
C 13.8420000   17.5030000   28.5980000  
C 13.8610000   18.9250000   28.9150000  
C 14.5490000   19.7680000   28.0560000  
C 15.1580000   19.2540000   26.9230000  
C 15.1500000   17.9010000   26.4610000  
C 14.4920000   17.0450000   27.3890000  
C 14.7560000   21.1670000   28.0060000  
C 15.5140000   21.4530000   26.8450000  
N 15.7770000   20.2260000   26.1640000  
O 15.1250000   23.7990000   26.7370000  
C 15.7680000   22.7540000   26.1800000  
O 16.3940000   22.9120000   25.1460000  
O 14.3620000   15.6900000   27.0620000  
O 13.2730000   16.6380000   29.4610000  
H 13.3040000   19.2180000   29.7910000  
H 14.2640000   21.8150000   28.7130000  
H 14.6350000   23.4370000   27.4040000  
H 16.1420000   20.1430000   25.2110000  
H 14.8910000   15.5390000   26.2240000  
H 13.7680000   15.8460000   29.4220000  
C 15.6810000   17.3720000   25.1560000  
C 17.0320000   16.9890000   25.1130000  
C 17.5370000   16.6220000   23.9200000  
C 16.8420000   16.5780000   22.7370000  
C 15.4990000   16.9420000   22.7810000  
C 14.9340000   17.4050000   23.9770000  
C 18.0590000   16.8570000   26.0960000  
C 19.0810000   16.2260000   25.4530000  
N 18.8170000   16.1790000   24.0620000  
O 20.5140000   15.9500000   27.4690000  
C 20.3410000   15.7210000   26.1390000  
O 21.1050000   14.9990000   25.5540000  
O 14.7650000   17.0160000   21.6350000  
O 13.6360000   17.8070000   23.8170000  
H 17.8880000   17.1260000   27.1490000  
H 19.7530000   16.5060000   27.6270000  
H 19.4380000   15.7220000   23.3650000  
H 15.3460000   16.6350000   20.9080000  
H 13.4050000   17.3370000   22.9320000  
C 17.5540000   16.2990000   21.4680000  
C 17.2940000   15.1790000   20.6530000  
C 17.8880000   14.9960000   19.4790000  
C 18.7880000   15.9840000   18.8820000  
C 19.1630000   17.0660000   19.7590000  
C 18.4600000   17.2270000   20.9890000  
C 16.3250000   14.1270000   20.7730000  
C 16.3620000   13.4070000   19.5500000  
N 17.3450000   14.0190000   18.7450000  
O 14.3900000   11.9490000   19.8540000  
C 15.4460000   12.3030000   19.1130000  
O 15.6510000   11.6380000   18.0660000  
O 19.8810000   18.1290000   19.2770000  
O 18.6780000   18.3880000   21.6800000  
H 15.6380000   14.0000000   21.6290000  
H 14.2940000   12.6110000   20.5180000  
H 17.5940000   13.8350000   17.7820000  
H 19.9270000   18.8130000   19.9830000  
H 18.1290000   18.3430000   22.4590000  
C 19.3600000   15.8120000   17.4910000  
C 18.6060000   16.1110000   16.3900000  
C 19.0910000   16.0160000   15.1240000  
C 20.2280000   15.2700000   14.8480000  
C 21.0330000   14.8660000   15.9200000  
C 20.6530000   15.2440000   17.2080000  
C 17.1840000   16.5180000   16.3240000  
C 16.9250000   16.6480000   15.0100000  
N 18.0560000   16.3150000   14.2650000  
O 14.7940000   17.8120000   15.3390000  
C 15.6310000   17.2320000   14.4430000  
O 15.4270000   17.2430000   13.2320000  
O 22.2610000   14.2780000   15.6890000  
O 21.4800000   14.9820000   18.2800000  
H 16.5330000   16.8640000   17.0700000  
H 15.2570000   17.5830000   16.2190000  
H 18.1340000   16.3280000   13.2880000  
H 22.7550000   14.1760000   16.5610000  
H 20.8680000   15.1050000   18.9640000  
H 20.5360000   15.0330000   13.8350000  
