78
111 
C  9.9870000   18.9290000   20.5860000  
C  9.0790000   17.8090000   20.7090000  
C  9.6820000   16.5430000   21.0110000  
C 11.0160000   16.4570000   21.2700000  
C 11.9170000   17.5150000   21.1540000  
C 11.3770000   18.7280000   20.7680000  
C  9.1620000   15.2270000   21.2390000  
C 10.2460000   14.4060000   21.6130000  
N 11.4110000   15.1660000   21.5470000  
O  8.9720000   12.4810000   22.0800000  
C 10.2000000   12.9740000   22.0600000  
O 11.1850000   12.2680000   22.2100000  
O 12.2930000   19.7790000   20.7630000  
O  9.5110000   20.1620000   20.3050000  
H  8.0370000   17.9630000   20.4570000  
H  8.1550000   14.8830000   21.1590000  
H  8.3540000   13.1700000   22.2270000  
H 12.4070000   14.9010000   21.8530000  
H 13.1720000   19.4290000   21.0220000  
H 10.1670000   20.8010000   20.5200000  
C 13.4130000   17.3540000   21.4410000  
C 14.3570000   17.1230000   20.4230000  
C 15.6650000   16.8340000   20.6090000  
C 16.2720000   16.7580000   21.8980000  
C 15.3470000   17.1190000   22.9910000  
C 13.9690000   17.3020000   22.7860000  
C 14.2060000   16.9130000   19.0090000  
C 15.4040000   16.7480000   18.3710000  
N 16.3450000   16.6120000   19.3990000  
O 14.6440000   16.9700000   16.1480000  
C 15.7580000   16.7230000   16.9440000  
O 16.8390000   16.3640000   16.4960000  
O 15.8800000   17.2000000   24.2400000  
O 13.1600000   17.7140000   23.7680000  
H 13.2980000   17.0810000   18.3950000  
H 14.0780000   17.3210000   16.8370000  
H 17.3210000   16.4820000   19.1810000  
H 16.8430000   17.0480000   24.0920000  
H 13.5910000   17.5710000   24.6480000  
C 17.7260000   16.4990000   22.0890000  
C 18.7000000   17.5190000   21.9620000  
C 20.0000000   17.2030000   22.0640000  
C 20.5260000   15.9160000   22.4570000  
C 19.5710000   14.8530000   22.5280000  
C 18.1130000   15.1420000   22.4490000  
C 18.6740000   18.8180000   21.4230000  
C 20.0200000   19.2210000   21.1980000  
N 20.8480000   18.2130000   21.7000000  
O 19.6180000   21.4080000   20.2890000  
C 20.5490000   20.5220000   20.6370000  
O 21.7640000   20.7450000   20.6200000  
O 20.0120000   13.5670000   22.7620000  
O 17.1340000   14.2100000   22.7180000  
H 17.7950000   19.4130000   21.2540000  
H 18.7540000   20.9590000   20.3270000  
H 21.8240000   18.1730000   21.5870000  
H 19.2820000   12.9500000   22.7590000  
H 16.3540000   14.4700000   22.2980000  
C 21.9120000   15.7090000   22.7880000  
C 22.5010000   16.5130000   23.8040000  
C 23.8350000   16.4090000   24.0940000  
C 24.7220000   15.5040000   23.4400000  
C 24.1950000   14.7320000   22.3990000  
C 22.8030000   14.8190000   22.1030000  
C 21.9510000   17.5220000   24.7000000  
C 22.9320000   17.9260000   25.5250000  
N 24.1210000   17.3770000   25.0680000  
O 21.6010000   19.4150000   26.7050000  
C 22.8510000   19.1020000   26.3940000  
O 23.8190000   19.7030000   26.8160000  
O 24.9730000   13.8520000   21.7150000  
O 22.3230000   14.0050000   21.0800000  
H 20.9420000   17.9450000   24.6770000  
H 21.0050000   18.8330000   26.1300000  
H 25.0270000   17.5710000   25.4560000  
H 24.2860000   13.4680000   21.1350000  
H 21.3520000   14.1840000   21.0310000  
H 25.8370000   15.5650000   23.5190000  
