78
111 
C 18.1430000   10.2560000   18.9110000  
C 17.0810000    9.7050000   18.1640000  
C 15.9730000   10.5170000   17.9200000  
C 15.9260000   11.7490000   18.4720000  
C 16.9170000   12.3400000   19.2710000  
C 18.0750000   11.5560000   19.4200000  
C 14.6980000   10.2270000   17.3220000  
C 13.9840000   11.4280000   17.4630000  
N 14.7870000   12.3280000   18.1510000  
O 11.9740000   10.9460000   16.3520000  
C 12.7210000   11.8920000   16.9010000  
O 12.3660000   13.0870000   16.9130000  
O 19.1280000   12.0380000   20.1520000  
O 19.3340000    9.5690000   19.0070000  
H 17.1000000    8.6610000   17.8950000  
H 14.4040000    9.4370000   16.7140000  
H 12.3090000   10.0940000   16.5940000  
H 14.6220000   13.3220000   18.3510000  
H 18.9610000   12.9550000   20.4840000  
H 20.0030000   10.2320000   19.4210000  
C 16.6690000   13.6610000   19.9070000  
C 16.7950000   13.8660000   21.2850000  
C 16.7560000   15.1320000   21.8920000  
C 16.5630000   16.3380000   21.2350000  
C 16.3840000   16.1890000   19.8350000  
C 16.4890000   14.8870000   19.1930000  
C 16.9220000   12.9550000   22.4140000  
C 16.8320000   13.7280000   23.6080000  
N 16.7680000   15.0830000   23.2880000  
O 16.7550000   11.8300000   25.1100000  
C 16.9090000   13.1760000   24.9660000  
O 17.0320000   13.9690000   25.8740000  
O 16.2000000   17.2910000   19.0630000  
O 16.5430000   14.8600000   17.8380000  
H 17.0960000   11.8760000   22.3550000  
H 16.6270000   11.4660000   24.2300000  
H 16.6590000   15.8470000   23.9720000  
H 16.5840000   18.0530000   19.4570000  
H 16.3230000   15.7350000   17.4490000  
C 16.5400000   17.6610000   21.9310000  
C 17.7570000   18.0540000   22.5480000  
C 17.7820000   19.1420000   23.4000000  
C 16.7060000   20.0000000   23.6620000  
C 15.5070000   19.6440000   23.1050000  
C 15.3690000   18.4460000   22.2800000  
C 19.0770000   17.4520000   22.6380000  
C 19.8840000   18.3670000   23.2880000  
N 19.0530000   19.4200000   23.8150000  
O 21.8730000   17.1750000   23.0890000  
C 21.3250000   18.2770000   23.5640000  
O 22.0810000   19.0870000   24.0640000  
O 14.3920000   20.3560000   23.3890000  
O 14.1480000   18.0500000   21.7100000  
H 19.4740000   16.5470000   22.2080000  
H 21.1180000   16.6960000   22.7740000  
H 19.2510000   20.0800000   24.5320000  
H 13.6790000   19.7810000   22.9900000  
H 14.3360000   17.2140000   21.2950000  
C 16.8870000   21.1460000   24.5360000  
C 17.4110000   22.3180000   23.9710000  
C 17.7080000   23.3390000   24.7920000  
C 17.4330000   23.4550000   26.1640000  
C 16.7780000   22.3740000   26.7190000  
C 16.5700000   21.2090000   25.8830000  
C 17.9160000   22.5770000   22.6760000  
C 18.5560000   23.7900000   22.8380000  
N 18.4160000   24.3080000   24.1310000  
O 19.2970000   23.8130000   20.5830000  
C 19.3840000   24.4110000   21.8010000  
O 20.0590000   25.4040000   21.9090000  
O 16.5200000   22.4950000   28.1090000  
O 16.0630000   20.0750000   26.4290000  
H 17.7540000   22.1270000   21.7600000  
H 18.8280000   22.9240000   20.8190000  
H 18.9360000   25.0800000   24.5720000  
H 15.7270000   21.8990000   28.3280000  
H 16.0780000   19.3740000   25.7390000  
H 17.7330000   24.2810000   26.8040000  
