78
111 
C 10.5730000   19.4000000   23.7080000  
C  9.4880000   18.6410000   23.3180000  
C  9.7340000   17.4480000   22.6190000  
C 11.0280000   17.1410000   22.2840000  
C 12.1150000   17.9450000   22.5680000  
C 11.8950000   19.0940000   23.3960000  
C  8.8600000   16.5160000   22.0140000  
C  9.7530000   15.6640000   21.2840000  
N 11.0440000   16.1620000   21.3450000  
O  7.9440000   14.3610000   20.4380000  
C  9.2960000   14.4090000   20.5280000  
O 10.0860000   13.6630000   20.0320000  
O 12.8830000   19.8660000   23.8740000  
O 10.2920000   20.6710000   24.2510000  
H  8.4750000   19.0980000   23.3960000  
H  7.7830000   16.4380000   22.2140000  
H  7.5500000   15.0040000   21.0120000  
H 11.8790000   15.7340000   20.9510000  
H 13.7330000   19.5260000   23.4240000  
H 11.1110000   21.0910000   24.6190000  
C 13.4690000   17.5070000   22.1390000  
C 14.2520000   18.3840000   21.4010000  
C 15.6070000   18.0960000   21.1970000  
C 16.2800000   16.9630000   21.6190000  
C 15.5210000   16.0490000   22.4740000  
C 14.1300000   16.2880000   22.6690000  
C 14.0550000   19.6740000   20.8010000  
C 15.2740000   20.1020000   20.3010000  
N 16.2210000   19.0910000   20.5220000  
O 14.4070000   22.1450000   19.4410000  
C 15.5240000   21.4040000   19.5860000  
O 16.6370000   21.7100000   19.1650000  
O 16.1020000   14.9120000   22.8920000  
O 13.4170000   15.4170000   23.3850000  
H 13.1600000   20.2810000   20.7060000  
H 13.6830000   21.5670000   19.7180000  
H 17.2150000   19.2410000   20.4540000  
H 17.0420000   14.9290000   22.7250000  
H 14.0060000   14.6540000   23.5610000  
C 17.7290000   16.7840000   21.4200000  
C 18.6830000   16.9870000   22.4630000  
C 20.0280000   16.9070000   22.2420000  
C 20.6200000   16.5810000   20.9410000  
C 19.6760000   16.4390000   19.9230000  
C 18.2250000   16.5710000   20.1210000  
C 18.4570000   16.9610000   23.8950000  
C 19.7530000   16.8520000   24.4700000  
N 20.6960000   16.7710000   23.4530000  
O 18.9740000   16.6750000   26.7060000  
C 20.0440000   16.7030000   25.9220000  
O 21.1810000   16.5760000   26.3630000  
O 20.0850000   16.1430000   18.6860000  
O 17.4020000   16.3650000   19.0060000  
H 17.4550000   17.0590000   24.3190000  
H 18.2470000   16.6390000   26.1670000  
H 21.7140000   16.7060000   23.5170000  
H 19.2720000   16.1290000   18.1050000  
H 16.4620000   16.4060000   19.1930000  
C 22.0760000   16.4170000   20.7090000  
C 22.7540000   15.2630000   21.1410000  
C 24.1300000   15.0600000   20.9840000  
C 24.9200000   16.0910000   20.5360000  
C 24.2980000   17.2700000   20.0480000  
C 22.8630000   17.4480000   20.1210000  
C 22.2640000   14.1310000   21.9400000  
C 23.3350000   13.2960000   22.1080000  
N 24.5030000   13.8530000   21.5450000  
O 22.0570000   11.8740000   23.5670000  
C 23.2340000   12.0640000   22.9290000  
O 24.0930000   11.2710000   23.0360000  
O 25.0830000   18.1700000   19.5230000  
O 22.2670000   18.7190000   19.9370000  
H 21.2510000   13.9710000   22.2540000  
H 21.5690000   12.6150000   23.1380000  
H 25.4210000   13.5680000   21.5030000  
H 24.6590000   18.6590000   18.7120000  
H 21.2950000   18.6910000   20.2180000  
H 25.9910000   15.9660000   20.5410000  
