78
111 
C 11.0970000   19.6970000   25.1120000  
C  9.9030000   19.0870000   24.6680000  
C 10.0120000   17.9760000   23.8430000  
C 11.2170000   17.5540000   23.4820000  
C 12.4660000   18.0700000   23.8590000  
C 12.3490000   19.1470000   24.7000000  
C  9.0230000   17.1900000   23.1300000  
C  9.6870000   16.3470000   22.2540000  
N 11.0500000   16.6390000   22.4600000  
O  7.8460000   15.3200000   21.2450000  
C  9.1870000   15.4670000   21.2510000  
O  9.8390000   14.8300000   20.4310000  
O 13.4570000   19.7730000   25.2100000  
O 11.0500000   20.7760000   25.9830000  
H  8.8840000   19.3220000   25.0770000  
H  7.9790000   17.2400000   23.3470000  
H  7.6410000   15.7010000   22.0800000  
H 11.7660000   16.1530000   22.0680000  
H 14.2660000   19.4250000   24.8060000  
H 11.9040000   20.7970000   26.3810000  
C 13.7260000   17.5560000   23.3080000  
C 14.4040000   18.3490000   22.3540000  
C 15.6610000   18.0280000   21.9260000  
C 16.2770000   16.7620000   22.2280000  
C 15.6450000   15.9470000   23.2740000  
C 14.4350000   16.4330000   23.8490000  
C 14.1720000   19.6160000   21.7090000  
C 15.2150000   19.9210000   20.8760000  
N 16.1300000   18.9020000   20.9890000  
O 14.1400000   21.7870000   19.9000000  
C 15.2470000   21.0530000   19.9610000  
O 16.0960000   21.2800000   19.1340000  
O 16.1250000   14.7000000   23.5600000  
O 13.7980000   15.6740000   24.7800000  
H 13.3100000   20.1660000   21.7750000  
H 13.5400000   21.4230000   20.5620000  
H 16.9730000   18.8040000   20.4110000  
H 16.8910000   14.5680000   23.0080000  
H 14.3830000   14.9560000   25.0390000  
C 17.5870000   16.3980000   21.6070000  
C 18.7220000   17.2320000   21.7240000  
C 19.9080000   16.8460000   21.1660000  
C 20.1450000   15.6560000   20.4300000  
C 18.9730000   14.8040000   20.3390000  
C 17.7980000   15.1450000   20.9960000  
C 18.9440000   18.6150000   22.1760000  
C 20.2870000   18.8140000   22.0720000  
N 20.8890000   17.7250000   21.3330000  
O 20.1260000   20.8300000   23.2080000  
C 20.9750000   19.9940000   22.6030000  
O 22.1750000   20.2540000   22.5540000  
O 18.8880000   13.6990000   19.5450000  
O 16.6650000   14.3920000   20.7890000  
H 18.1370000   19.1590000   22.7330000  
H 19.2510000   20.3680000   23.2250000  
H 21.8680000   17.5660000   21.5730000  
H 17.9450000   13.3130000   19.6890000  
H 15.9260000   15.0610000   20.8360000  
C 21.4900000   15.2260000   19.8840000  
C 22.4770000   14.5570000   20.6850000  
C 23.6590000   14.0440000   20.1330000  
C 23.9350000   14.0860000   18.7390000  
C 22.8990000   14.6240000   17.9430000  
C 21.7220000   15.1770000   18.4550000  
C 22.5250000   14.1170000   22.0280000  
C 23.7530000   13.5950000   22.3060000  
N 24.4040000   13.3660000   21.0870000  
O 23.5490000   13.4670000   24.7030000  
C 24.3230000   13.2210000   23.6370000  
O 25.4000000   12.6350000   23.7030000  
O 23.0750000   14.6400000   16.5730000  
O 20.8290000   15.7170000   17.5310000  
H 21.7480000   14.3950000   22.7040000  
H 22.6990000   13.6900000   24.2920000  
H 25.3610000   13.0990000   21.0330000  
H 22.3800000   15.1940000   16.1600000  
H 20.0920000   16.1090000   17.9320000  
H 24.7150000   13.5370000   18.2520000  
