78
111 
C 14.0010000   16.7320000   28.7110000  
C 13.3730000   17.9860000   28.9270000  
C 13.4750000   18.9160000   27.9430000  
C 13.9320000   18.6010000   26.7290000  
C 14.5410000   17.3440000   26.3820000  
C 14.5460000   16.3790000   27.4260000  
C 12.8530000   20.1230000   27.8310000  
C 12.8800000   20.5320000   26.4720000  
N 13.7180000   19.6460000   25.8410000  
O 12.0340000   22.7210000   26.7850000  
C 12.4450000   21.8140000   25.8700000  
O 12.4020000   22.0250000   24.6500000  
O 15.1530000   15.1420000   27.2370000  
O 13.9780000   15.8340000   29.6700000  
H 12.7340000   18.1030000   29.7820000  
H 12.3380000   20.6820000   28.6450000  
H 12.3690000   22.4170000   27.6380000  
H 14.0900000   19.6260000   24.8660000  
H 15.3940000   15.0780000   26.2950000  
H 14.4830000   15.0800000   29.3340000  
C 15.1000000   17.2010000   25.0550000  
C 16.4770000   17.3670000   24.8720000  
C 17.0610000   17.3780000   23.6600000  
C 16.4140000   17.0650000   22.4320000  
C 15.0290000   16.7780000   22.6260000  
C 14.3760000   16.7710000   23.9240000  
C 17.6070000   17.6140000   25.7580000  
C 18.7870000   17.7240000   25.0280000  
N 18.4420000   17.4370000   23.7130000  
O 20.0580000   17.8760000   26.9570000  
C 20.0970000   17.8500000   25.5900000  
O 21.0940000   18.0350000   24.8890000  
O 14.3050000   16.6460000   21.4500000  
O 13.0740000   16.4860000   23.8960000  
H 17.6120000   17.8280000   26.8000000  
H 19.1280000   17.6770000   27.1140000  
H 19.0650000   17.3940000   22.9020000  
H 14.9050000   16.4650000   20.6680000  
H 12.8550000   16.5420000   22.9580000  
C 17.0780000   17.0210000   21.0580000  
C 18.1470000   16.1540000   20.7870000  
C 18.7180000   16.1870000   19.5430000  
C 18.3520000   17.0040000   18.4470000  
C 17.3520000   17.9420000   18.7710000  
C 16.6780000   17.9390000   20.0060000  
C 18.7780000   15.1220000   21.4860000  
C 19.6650000   14.5120000   20.6290000  
N 19.7140000   15.2670000   19.4120000  
O 20.3440000   12.6010000   21.9370000  
C 20.4910000   13.2960000   20.8040000  
O 21.2160000   12.9040000   19.9020000  
O 17.0170000   18.7710000   17.7160000  
O 15.6350000   18.8870000   20.0370000  
H 18.5830000   14.6860000   22.4320000  
H 19.7730000   13.1630000   22.4610000  
H 20.3220000   15.0950000   18.6380000  
H 16.2910000   19.3140000   17.9000000  
H 14.8900000   18.5900000   20.6990000  
C 18.9770000   16.7780000   17.0920000  
C 18.8940000   15.5550000   16.4270000  
C 19.5400000   15.3220000   15.2450000  
C 20.2950000   16.3100000   14.6050000  
C 20.4940000   17.5190000   15.2840000  
C 19.8590000   17.7100000   16.5250000  
C 18.1940000   14.3980000   16.7950000  
C 18.3920000   13.4670000   15.7700000  
N 19.2680000   14.0410000   14.8310000  
O 17.2170000   11.7760000   17.0340000  
C 17.8800000   12.0950000   15.8030000  
O 18.1710000   11.2590000   14.9620000  
O 21.3370000   18.4830000   14.8410000  
O 20.2640000   18.7770000   17.3120000  
H 17.8100000   14.2660000   17.7560000  
H 17.2350000   12.5340000   17.6580000  
H 19.6130000   13.6110000   13.9780000  
H 21.2230000   19.1100000   15.6150000  
H 19.6930000   18.9730000   18.0550000  
H 20.8460000   16.0950000   13.6770000  
