78
111 
C 12.1570000   14.3420000   16.6670000  
C 11.2330000   13.4520000   17.2950000  
C 11.4000000   13.2680000   18.6930000  
C 12.3700000   13.9100000   19.3260000  
C 13.4220000   14.7310000   18.7680000  
C 13.2690000   14.9470000   17.4010000  
C 10.7590000   12.3930000   19.6080000  
C 11.4010000   12.6250000   20.7840000  
N 12.5350000   13.3900000   20.5340000  
O  9.8210000   11.6400000   22.1950000  
C 11.0460000   12.1610000   22.1200000  
O 11.8670000   12.2230000   23.0310000  
O 14.1080000   15.8600000   16.7130000  
O 11.8120000   14.7570000   15.4420000  
H 10.5160000   12.9760000   16.7240000  
H  9.7460000   11.9150000   19.4430000  
H  9.4820000   11.8540000   21.3180000  
H 13.1560000   13.7900000   21.2940000  
H 14.7020000   16.2730000   17.3430000  
H 12.3600000   15.5620000   15.1640000  
C 14.5000000   15.4010000   19.5440000  
C 15.8650000   15.2120000   19.1920000  
C 16.8310000   15.7580000   20.0100000  
C 16.6200000   16.5760000   21.1780000  
C 15.2850000   16.7720000   21.4840000  
C 14.2620000   16.1360000   20.7450000  
C 16.5690000   14.3450000   18.2390000  
C 17.9240000   14.5400000   18.4020000  
N 18.0440000   15.4690000   19.4250000  
O 18.5820000   12.9880000   16.7430000  
C 19.0250000   13.8620000   17.7290000  
O 20.1420000   14.2940000   17.8520000  
O 15.0060000   17.5240000   22.6260000  
O 12.9670000   16.3380000   21.1360000  
H 16.2190000   13.7540000   17.3700000  
H 17.6600000   12.8830000   16.5250000  
H 18.9040000   15.8130000   19.8420000  
H 15.8800000   18.0290000   22.7980000  
H 12.9120000   16.5800000   22.0830000  
C 17.6460000   17.1800000   22.0590000  
C 17.9910000   18.5140000   21.9730000  
C 18.9990000   18.9320000   22.7290000  
C 19.7920000   18.2100000   23.6940000  
C 19.3830000   16.8320000   23.8130000  
C 18.3920000   16.3020000   22.9020000  
C 17.4870000   19.6320000   21.2040000  
C 18.2510000   20.6950000   21.6130000  
N 19.2120000   20.2350000   22.4650000  
O 17.1580000   22.4850000   20.4020000  
C 18.2020000   22.0970000   21.1830000  
O 19.0510000   22.9170000   21.5180000  
O 20.0950000   16.0950000   24.6520000  
O 17.9740000   14.9810000   22.9720000  
H 16.6420000   19.5850000   20.5080000  
H 16.5220000   21.8140000   20.4590000  
H 19.9440000   20.7370000   22.9380000  
H 20.0850000   15.1520000   24.3670000  
H 17.7120000   14.6520000   22.0930000  
C 20.9360000   18.8160000   24.3710000  
C 20.7750000   19.2080000   25.6810000  
C 21.7430000   19.8320000   26.4130000  
C 22.9480000   20.1720000   25.8390000  
C 23.2150000   19.8670000   24.4760000  
C 22.1860000   19.1860000   23.7210000  
C 19.7590000   18.8880000   26.5760000  
C 20.0900000   19.3920000   27.8420000  
N 21.3470000   20.0080000   27.7030000  
O 18.0080000   18.8690000   28.8530000  
C 19.2280000   19.4140000   28.9900000  
O 19.6170000   19.9430000   29.9930000  
O 24.4690000   20.0740000   23.9450000  
O 22.4870000   18.8700000   22.4210000  
H 18.9200000   18.2920000   26.2750000  
H 17.9140000   18.4390000   28.0160000  
H 21.9530000   20.3480000   28.4320000  
H 24.5500000   19.6400000   23.0890000  
H 21.7030000   18.3930000   22.0130000  
H 23.7220000   20.6620000   26.3260000  
