78
111 
C 15.3150000   17.9870000   29.0870000  
C 16.5200000   18.2350000   29.7960000  
C 17.7480000   18.0780000   29.0660000  
C 17.7640000   17.8590000   27.7440000  
C 16.5840000   17.6820000   26.9800000  
C 15.3600000   17.6540000   27.7050000  
C 19.0860000   18.2830000   29.5110000  
C 19.8940000   18.1930000   28.4030000  
N 19.0570000   17.9880000   27.2640000  
O 22.0610000   18.6290000   29.4370000  
C 21.3650000   18.3750000   28.3190000  
O 21.9480000   18.5010000   27.2580000  
O 14.2250000   17.2140000   27.0040000  
O 14.1060000   18.2150000   29.6140000  
H 16.4690000   18.5270000   30.7980000  
H 19.4920000   18.4420000   30.4580000  
H 21.4130000   18.9500000   30.1210000  
H 19.3710000   18.0030000   26.2440000  
H 14.6370000   16.8740000   26.2040000  
H 13.5040000   18.2910000   28.8450000  
C 16.7160000   17.5130000   25.4960000  
C 17.6090000   16.5390000   24.9140000  
C 17.6450000   16.2330000   23.5830000  
C 16.8620000   16.9150000   22.6410000  
C 16.0660000   17.9840000   23.1240000  
C 15.9130000   18.2300000   24.5340000  
C 18.5580000   15.6110000   25.4660000  
C 19.1180000   14.9150000   24.4060000  
N 18.5460000   15.3030000   23.2350000  
O 20.5960000   13.5730000   25.6720000  
C 20.1310000   13.8440000   24.4580000  
O 20.5320000   13.2570000   23.4740000  
O 15.3660000   18.7720000   22.3230000  
O 15.0450000   19.1490000   24.9880000  
H 18.7960000   15.5120000   26.5590000  
H 20.3870000   14.3460000   26.2420000  
H 18.6600000   14.8230000   22.3610000  
H 15.6070000   18.4940000   21.4370000  
H 15.0090000   19.8850000   24.3000000  
C 17.0780000   16.6340000   21.2220000  
C 16.0800000   16.0380000   20.4840000  
C 16.2510000   15.9230000   19.1140000  
C 17.4450000   16.1850000   18.3510000  
C 18.4430000   16.8190000   19.1530000  
C 18.2380000   17.0110000   20.5160000  
C 14.7420000   15.6440000   20.7710000  
C 14.1950000   15.4210000   19.5610000  
N 15.1350000   15.3540000   18.5770000  
O 11.9410000   15.0800000   20.3130000  
C 12.7730000   15.2060000   19.2390000  
O 12.2750000   15.1210000   18.1540000  
O 19.5830000   17.2710000   18.5940000  
O 19.1740000   17.6320000   21.2640000  
H 14.2390000   15.6810000   21.6980000  
H 12.5560000   15.3460000   21.0640000  
H 15.0150000   14.8450000   17.6920000  
H 19.9330000   17.9760000   19.1880000  
H 18.8060000   17.9610000   22.1680000  
C 17.5890000   16.1090000   16.8370000  
C 16.6970000   16.8440000   15.9630000  
C 16.8740000   16.8540000   14.5950000  
C 17.8660000   16.1620000   13.9140000  
C 18.7040000   15.3000000   14.7370000  
C 18.6250000   15.3640000   16.1920000  
C 15.5570000   17.7340000   16.2390000  
C 15.0680000   18.1550000   14.9750000  
N 15.9490000   17.7630000   14.0320000  
O 12.9710000   19.0930000   15.8210000  
C 13.7260000   18.7560000   14.7260000  
O 13.3360000   18.8580000   13.5360000  
O 19.7960000   14.5640000   14.2210000  
O 19.5970000   14.8170000   16.9480000  
H 15.1470000   17.8780000   17.2270000  
H 13.5290000   18.7170000   16.5180000  
H 15.7800000   18.0770000   13.1310000  
H 20.4150000   14.2000000   14.8780000  
H 19.6350000   15.2780000   17.8290000  
H 17.9770000   16.2210000   12.8380000  
