78
111 
C 22.6930000   12.1600000   22.6530000  
C 22.2920000   10.7780000   22.8920000  
C 20.9460000   10.4530000   22.5350000  
C 20.1160000   11.4550000   22.0910000  
C 20.4360000   12.7930000   21.9830000  
C 21.7730000   13.1210000   22.2550000  
C 20.1940000    9.2460000   22.6830000  
C 18.8780000    9.5700000   22.2280000  
N 18.7930000   10.9620000   21.9530000  
O 18.1430000    7.3760000   22.3140000  
C 17.7670000    8.6090000   22.1010000  
O 16.5960000    8.9390000   21.9290000  
O 22.2080000   14.4150000   22.1580000  
O 23.9680000   12.4750000   22.9180000  
H 23.0650000   10.0090000   23.2260000  
H 20.5440000    8.3520000   23.1700000  
H 19.1200000    7.4990000   22.5780000  
H 17.9880000   11.5590000   21.6390000  
H 21.4150000   15.0780000   22.0990000  
H 24.0570000   13.4290000   22.8680000  
C 19.3780000   13.8470000   21.6430000  
C 18.5330000   14.2980000   22.7140000  
C 17.7050000   15.3860000   22.4870000  
C 17.4970000   16.0810000   21.2880000  
C 18.2220000   15.5870000   20.1660000  
C 19.2220000   14.5020000   20.3840000  
C 18.4380000   13.9590000   24.1660000  
C 17.5640000   14.9050000   24.7260000  
N 17.1120000   15.7320000   23.6720000  
O 17.1500000   13.8150000   26.7340000  
C 16.8900000   14.9070000   26.0370000  
O 16.1320000   15.8480000   26.3620000  
O 18.0620000   16.2050000   18.9300000  
O 19.9730000   14.1360000   19.3220000  
H 18.7230000   13.0350000   24.6870000  
H 17.6440000   13.2760000   26.1350000  
H 16.3480000   16.3780000   23.6990000  
H 17.4540000   16.9670000   19.0800000  
H 19.8100000   14.6960000   18.5370000  
C 16.5960000   17.2470000   21.0840000  
C 16.8260000   18.4710000   21.7330000  
C 15.8780000   19.4200000   21.7380000  
C 14.6050000   19.4000000   21.0490000  
C 14.4260000   18.1580000   20.3730000  
C 15.3600000   17.1180000   20.4020000  
C 17.9810000   18.9570000   22.4640000  
C 17.6270000   20.2220000   22.9370000  
N 16.3360000   20.5070000   22.3720000  
O 19.5240000   20.4400000   24.4350000  
C 18.4160000   21.0150000   23.9530000  
O 18.0660000   22.1670000   24.2030000  
O 13.2840000   18.0870000   19.5930000  
O 14.9320000   15.9770000   19.8120000  
H 18.8850000   18.4350000   22.7110000  
H 19.5460000   19.5310000   24.0110000  
H 15.7450000   21.2190000   22.8370000  
H 13.4670000   17.3890000   18.9060000  
H 15.6420000   15.3990000   19.8120000  
C 13.5720000   20.5150000   21.0890000  
C 13.9070000   21.8080000   20.7220000  
C 13.0330000   22.8460000   20.8000000  
C 11.6620000   22.6990000   21.1480000  
C 11.2190000   21.3750000   21.3230000  
C 12.2170000   20.3200000   21.3400000  
C 15.1590000   22.2500000   20.0700000  
C 14.9060000   23.5990000   19.6960000  
N 13.6230000   23.9750000   20.1790000  
O 17.0620000   24.0720000   18.9360000  
C 15.8190000   24.5870000   19.0400000  
O 15.5010000   25.7050000   18.6590000  
O  9.8770000   21.0060000   21.3140000  
O 11.7260000   19.0440000   21.5110000  
H 16.0690000   21.6660000   19.8520000  
H 16.9840000   23.1460000   19.2760000  
H 13.2180000   24.8460000   20.0210000  
H  9.8430000   20.0640000   21.5870000  
H 12.3240000   18.4440000   20.9640000  
H 10.9430000   23.4570000   21.0890000  
