78
111 
C 14.7520000   12.5290000   16.0600000  
C 13.8580000   11.6050000   16.5830000  
C 13.7110000   11.5840000   17.9670000  
C 14.3340000   12.4930000   18.7170000  
C 15.1090000   13.5190000   18.2690000  
C 15.3810000   13.5250000   16.8760000  
C 13.2600000   10.5260000   18.9470000  
C 13.5990000   10.9970000   20.2240000  
N 14.2030000   12.2130000   20.0650000  
O 12.5590000    9.1540000   21.3940000  
C 13.2640000   10.2670000   21.4930000  
O 13.4380000   10.6760000   22.6380000  
O 16.4420000   14.3130000   16.4270000  
O 14.9470000   12.4800000   14.6920000  
H 13.5600000   10.7140000   16.0900000  
H 12.7340000    9.6070000   18.6750000  
H 12.5970000    8.9150000   20.4620000  
H 14.6400000   12.7390000   20.8200000  
H 16.1300000   15.2690000   16.5260000  
H 15.7230000   12.9990000   14.5460000  
C 15.6880000   14.5450000   19.1990000  
C 16.8520000   14.1750000   19.9200000  
C 17.4570000   15.0310000   20.7670000  
C 16.9130000   16.3320000   21.1310000  
C 15.7230000   16.6950000   20.4530000  
C 15.0720000   15.7920000   19.5590000  
C 17.6300000   12.9110000   19.9720000  
C 18.6330000   13.1110000   20.9310000  
N 18.5190000   14.4200000   21.4020000  
O 19.6590000   10.9690000   20.7690000  
C 19.7430000   12.1160000   21.3430000  
O 20.5750000   12.3830000   22.2010000  
O 15.2000000   17.9350000   20.6870000  
O 13.9400000   16.1650000   18.9910000  
H 17.3790000   12.1010000   19.3480000  
H 18.8010000   10.8970000   20.2470000  
H 19.0940000   14.8600000   22.0990000  
H 15.7980000   18.4490000   21.3260000  
H 13.5270000   16.9450000   19.5420000  
C 17.5990000   17.2190000   22.1200000  
C 18.1220000   18.4580000   21.8170000  
C 18.6740000   19.3020000   22.7840000  
C 18.6960000   19.0530000   24.1480000  
C 18.2120000   17.7470000   24.5050000  
C 17.6590000   16.8900000   23.5140000  
C 18.1010000   19.2420000   20.5630000  
C 18.5920000   20.5400000   20.8510000  
N 19.0130000   20.5550000   22.2190000  
O 18.1300000   21.3460000   18.6810000  
C 18.8560000   21.5700000   19.8320000  
O 19.5000000   22.5640000   20.0360000  
O 18.1040000   17.3900000   25.8700000  
O 17.0970000   15.7310000   23.9150000  
H 17.6750000   18.9540000   19.6010000  
H 17.3980000   20.7820000   18.8240000  
H 19.4920000   21.3220000   22.6030000  
H 17.7380000   16.4950000   25.9410000  
H 16.8770000   15.2520000   23.0410000  
C 19.1180000   20.0880000   25.2240000  
C 18.4060000   21.3200000   25.5160000  
C 18.8390000   22.1730000   26.4830000  
C 19.9420000   21.9510000   27.2440000  
C 20.6220000   20.7630000   27.0690000  
C 20.1820000   19.8130000   26.1390000  
C 17.2940000   21.9400000   24.8570000  
C 17.0670000   23.1670000   25.4990000  
N 17.9830000   23.3070000   26.5490000  
O 15.0240000   23.6650000   24.4540000  
C 15.9010000   24.1120000   25.2830000  
O 15.7250000   25.1050000   25.9530000  
O 21.7370000   20.5980000   27.8180000  
O 20.8680000   18.6620000   26.0700000  
H 16.7710000   21.4510000   24.0770000  
H 15.4510000   22.8900000   24.0270000  
H 17.8600000   24.0070000   27.2290000  
H 22.0860000   19.7120000   27.5240000  
H 20.2080000   18.0620000   25.7110000  
H 20.2310000   22.7710000   27.9350000  
