78
111 
C 14.3950000   13.0270000   16.2880000  
C 13.5550000   11.9910000   16.5960000  
C 13.0250000   11.9450000   17.8830000  
C 13.4450000   12.7950000   18.8790000  
C 14.4570000   13.7680000   18.6860000  
C 14.9000000   13.8660000   17.3170000  
C 12.1360000   10.9740000   18.5620000  
C 12.0380000   11.4060000   19.8930000  
N 12.9260000   12.4860000   20.0490000  
O 10.6670000    9.5250000   20.6150000  
C 11.2910000   10.6730000   20.9660000  
O 11.2000000   11.0360000   22.0990000  
O 15.8380000   14.7730000   17.0280000  
O 14.8620000   13.2580000   15.0030000  
H 13.2610000   11.2750000   15.8230000  
H 11.3910000   10.2570000   18.1680000  
H 10.7380000    9.5060000   19.6230000  
H 12.8260000   13.2050000   20.8270000  
H 16.4890000   14.8680000   17.7880000  
H 15.1260000   14.2190000   14.9820000  
C 15.1350000   14.5040000   19.7830000  
C 16.5000000   14.4640000   19.8850000  
C 17.1920000   15.3750000   20.6660000  
C 16.5890000   16.3480000   21.4560000  
C 15.1650000   16.4150000   21.3090000  
C 14.4390000   15.4980000   20.5650000  
C 17.5780000   13.6390000   19.2660000  
C 18.8090000   13.9660000   19.9630000  
N 18.5680000   15.0770000   20.7730000  
O 20.1260000   12.3500000   18.9150000  
C 20.1210000   13.3610000   19.8550000  
O 21.1490000   13.7140000   20.4000000  
O 14.4670000   17.3760000   21.9860000  
O 13.1210000   15.6060000   20.3770000  
H 17.4660000   12.8970000   18.5450000  
H 19.2370000   12.4950000   18.4670000  
H 19.2490000   15.4960000   21.3360000  
H 14.9620000   17.5770000   22.7460000  
H 12.8240000   16.3360000   20.9410000  
C 17.3960000   17.1010000   22.4440000  
C 17.9120000   18.3310000   22.0330000  
C 18.7420000   19.0210000   22.8650000  
C 19.1850000   18.6310000   24.1630000  
C 18.7920000   17.3190000   24.4820000  
C 17.8300000   16.5780000   23.6930000  
C 17.5850000   19.1850000   20.8640000  
C 18.1960000   20.3970000   21.1680000  
N 18.9300000   20.3500000   22.3790000  
O 17.5520000   21.4730000   19.1450000  
C 18.1860000   21.6360000   20.3250000  
O 18.7150000   22.7210000   20.6550000  
O 19.2910000   16.7320000   25.6230000  
O 17.5580000   15.2790000   23.9830000  
H 17.1370000   18.8860000   19.9730000  
H 17.4260000   20.5460000   19.1510000  
H 19.1810000   21.1720000   22.9110000  
H 18.7180000   15.9770000   25.8430000  
H 16.7900000   15.0200000   23.3950000  
C 20.0040000   19.5500000   25.0240000  
C 19.4680000   20.6810000   25.6980000  
C 20.2840000   21.6240000   26.3590000  
C 21.6530000   21.5520000   26.3780000  
C 22.1860000   20.3630000   25.8750000  
C 21.4060000   19.3910000   25.2230000  
C 18.0890000   21.1940000   25.7280000  
C 18.1190000   22.4090000   26.3670000  
N 19.4740000   22.7130000   26.7800000  
O 15.7990000   22.8780000   26.1270000  
C 16.9630000   23.3110000   26.6470000  
O 16.9360000   24.3880000   27.2180000  
O 23.4960000   20.2510000   25.9540000  
O 22.0000000   18.2480000   24.7660000  
H 17.1990000   20.6860000   25.3280000  
H 15.9870000   22.0230000   25.6670000  
H 19.8060000   23.6110000   27.0800000  
H 23.8660000   19.3980000   25.5990000  
H 21.2390000   17.6900000   24.4710000  
H 22.1770000   22.4100000   26.7580000  
