78
111 
C 18.0580000   17.1710000   29.4270000  
C 19.4330000   17.1560000   29.5930000  
C 20.2310000   17.0770000   28.4710000  
C 19.6900000   16.9520000   27.1500000  
C 18.3380000   16.9860000   26.8820000  
C 17.5050000   17.0160000   28.0460000  
C 21.6950000   17.0360000   28.3670000  
C 21.9710000   17.0330000   26.9750000  
N 20.7640000   16.9790000   26.2530000  
O 24.2970000   17.0220000   27.1370000  
C 23.2630000   17.0790000   26.3100000  
O 23.4060000   17.1950000   25.1120000  
O 16.1360000   17.0320000   27.9720000  
O 17.2860000   17.0240000   30.5680000  
H 19.7870000   17.1860000   30.5750000  
H 22.4150000   17.2480000   29.1840000  
H 23.9970000   16.6700000   27.9560000  
H 20.5990000   16.9140000   25.2440000  
H 15.9460000   17.1540000   27.0170000  
H 16.4720000   17.4570000   30.3410000  
C 17.7640000   16.9450000   25.5200000  
C 17.3310000   15.7250000   24.9890000  
C 16.9880000   15.6680000   23.7140000  
C 17.0700000   16.7340000   22.7390000  
C 17.5150000   17.9910000   23.2450000  
C 17.9070000   18.0150000   24.6300000  
C 17.1960000   14.3760000   25.5620000  
C 16.6810000   13.6200000   24.5040000  
N 16.5600000   14.4050000   23.4030000  
O 16.6580000   11.5770000   25.6440000  
C 16.3140000   12.1820000   24.4950000  
O 15.8720000   11.5470000   23.5610000  
O 17.5540000   19.1160000   22.4240000  
O 18.3940000   19.1920000   25.1280000  
H 17.3790000   14.0410000   26.6340000  
H 17.2350000   12.2130000   26.1520000  
H 16.1700000   14.1300000   22.5350000  
H 17.1780000   18.7720000   21.6330000  
H 18.6930000   19.7040000   24.3530000  
C 16.7620000   16.5930000   21.3560000  
C 15.5170000   16.9280000   20.7700000  
C 15.3200000   16.9480000   19.4200000  
C 16.2640000   16.5620000   18.4430000  
C 17.5130000   16.2700000   18.9890000  
C 17.7580000   16.3390000   20.4090000  
C 14.2420000   17.2370000   21.4190000  
C 13.3840000   17.4400000   20.4020000  
N 14.0150000   17.2810000   19.1470000  
O 11.5510000   18.2210000   21.7040000  
C 12.0130000   17.9310000   20.4850000  
O 11.3760000   18.0230000   19.4730000  
O 18.5390000   16.1600000   18.1750000  
O 19.0260000   16.2650000   20.9060000  
H 14.0640000   17.2660000   22.5380000  
H 12.3210000   17.9300000   22.2650000  
H 13.5670000   17.3000000   18.2050000  
H 19.3270000   16.1660000   18.7240000  
H 18.8060000   16.0990000   21.8250000  
C 15.9730000   16.5230000   16.9350000  
C 16.0090000   17.6370000   16.0620000  
C 15.6620000   17.4530000   14.7610000  
C 15.2480000   16.2700000   14.1960000  
C 15.1860000   15.1960000   15.0530000  
C 15.5700000   15.2910000   16.4000000  
C 16.2610000   19.0230000   16.2100000  
C 15.9430000   19.6900000   15.0550000  
N 15.7760000   18.6750000   14.0890000  
O 16.3650000   21.9150000   15.8610000  
C 15.9640000   21.1480000   14.7880000  
O 15.7450000   21.6420000   13.7090000  
O 14.9430000   13.9630000   14.4280000  
O 15.6420000   14.1200000   17.0320000  
H 16.5410000   19.5390000   17.1300000  
H 16.4590000   21.2060000   16.6050000  
H 15.4390000   18.9110000   13.2050000  
H 14.6950000   13.3050000   15.1410000  
H 16.3350000   14.2300000   17.7330000  
H 15.1260000   16.1370000   13.0710000  
