78
111 
C 13.2010000   18.4540000   27.8540000  
C 13.9530000   19.2850000   28.6710000  
C 15.2980000   19.5910000   28.2760000  
C 15.7450000   19.1090000   27.1020000  
C 14.9230000   18.3650000   26.1540000  
C 13.5910000   18.0310000   26.5810000  
C 16.3950000   20.3470000   28.8470000  
C 17.4580000   20.2650000   27.9710000  
N 17.0080000   19.6660000   26.8320000  
O 19.1110000   21.3170000   29.4380000  
C 18.9220000   20.6900000   28.2540000  
O 19.8020000   20.5500000   27.4610000  
O 12.8360000   17.2850000   25.8090000  
O 11.9630000   18.0930000   28.2470000  
H 13.5370000   19.6090000   29.6330000  
H 16.3960000   20.8680000   29.7910000  
H 18.2680000   21.6740000   29.6210000  
H 17.5120000   19.3810000   26.0100000  
H 13.0860000   17.5490000   24.8660000  
H 11.6490000   17.5620000   27.5040000  
C 15.5340000   18.0160000   24.8920000  
C 16.5770000   17.0930000   24.8270000  
C 17.1900000   16.8350000   23.6190000  
C 16.7530000   17.4370000   22.4040000  
C 15.6620000   18.3490000   22.5210000  
C 15.0420000   18.6340000   23.7240000  
C 17.3080000   16.4090000   25.7930000  
C 18.3840000   15.7890000   25.1570000  
N 18.3790000   16.1120000   23.8080000  
O 19.3340000   14.8050000   27.1310000  
C 19.5320000   15.0140000   25.8230000  
O 20.5090000   14.6180000   25.1780000  
O 15.2200000   18.9560000   21.3650000  
O 14.0310000   19.5320000   23.8490000  
H 17.1750000   16.3900000   26.8930000  
H 18.6060000   15.2990000   27.4460000  
H 19.0120000   15.7470000   23.1130000  
H 15.8670000   18.6890000   20.6670000  
H 13.8940000   19.9590000   22.9510000  
C 17.4340000   17.1390000   21.0410000  
C 17.3890000   15.8120000   20.5130000  
C 17.9980000   15.4680000   19.3310000  
C 18.7020000   16.3710000   18.5410000  
C 18.7800000   17.7260000   19.0890000  
C 18.2370000   18.0560000   20.3200000  
C 16.6080000   14.7120000   20.9400000  
C 16.8450000   13.7620000   19.9820000  
N 17.6310000   14.1810000   18.9280000  
O 15.3090000   12.1100000   20.8440000  
C 16.1880000   12.3970000   19.9400000  
O 16.4370000   11.5510000   19.0850000  
O 19.4430000   18.6980000   18.4360000  
O 18.5290000   19.2650000   20.9100000  
H 15.9370000   14.6770000   21.7680000  
H 15.3940000   12.8920000   21.4910000  
H 17.8930000   13.7320000   18.0950000  
H 19.8170000   19.3280000   19.0240000  
H 18.0750000   19.2620000   21.7030000  
C 19.0200000   16.0010000   17.1530000  
C 17.9680000   15.5690000   16.2790000  
C 18.1640000   15.3280000   14.9630000  
C 19.4450000   15.4290000   14.4170000  
C 20.4990000   15.9140000   15.2050000  
C 20.2710000   16.2280000   16.5680000  
C 16.5440000   15.4360000   16.4920000  
C 15.9420000   15.0290000   15.2960000  
N 16.9660000   15.0660000   14.3420000  
O 13.6520000   15.0180000   16.0670000  
C 14.4880000   14.7080000   15.0630000  
O 14.1570000   14.3190000   13.9660000  
O 21.7520000   15.9690000   14.6810000  
O 21.2570000   16.8100000   17.3030000  
H 16.0770000   15.5960000   17.4100000  
H 14.1720000   15.5290000   16.6110000  
H 16.9440000   14.7630000   13.4080000  
H 22.2860000   16.2720000   15.3950000  
H 20.9380000   17.1730000   18.1230000  
H 19.6630000   15.2370000   13.3780000  
