78
111 
C 17.4250000   11.3640000   16.9710000  
C 16.4220000   10.3760000   17.1150000  
C 15.5630000   10.3420000   18.1820000  
C 15.6250000   11.3050000   19.1220000  
C 16.4710000   12.4310000   19.0650000  
C 17.4060000   12.4330000   17.9600000  
C 14.4320000    9.5570000   18.5730000  
C 13.9640000   10.0480000   19.8020000  
N 14.7210000   11.1890000   20.0940000  
O 12.2790000    8.3930000   20.0430000  
C 12.7530000    9.5520000   20.5310000  
O 12.1930000   10.1120000   21.4550000  
O 18.1730000   13.5320000   17.7260000  
O 18.3260000   11.3480000   15.9360000  
H 16.3680000    9.5850000   16.3370000  
H 13.8940000    8.7170000   18.1240000  
H 12.7860000    8.2080000   19.1870000  
H 14.5320000   11.8990000   20.8460000  
H 18.0200000   14.1750000   18.4470000  
H 18.5480000   12.2740000   15.7350000  
C 16.3750000   13.5420000   20.1520000  
C 17.6310000   14.0970000   20.6200000  
C 17.6040000   15.2100000   21.3960000  
C 16.4950000   15.9140000   21.8400000  
C 15.2860000   15.4610000   21.2030000  
C 15.2030000   14.3040000   20.4250000  
C 19.0350000   13.6980000   20.6870000  
C 19.7310000   14.6550000   21.4250000  
N 18.8140000   15.5630000   21.9180000  
O 21.8780000   13.8070000   21.3900000  
C 21.0910000   14.6680000   21.9700000  
O 21.4730000   15.4620000   22.8430000  
O 14.1370000   16.2370000   21.3970000  
O 13.9890000   13.8770000   19.8670000  
H 19.5970000   12.9100000   20.2560000  
H 21.3090000   13.2920000   20.8330000  
H 18.9810000   16.3530000   22.5500000  
H 14.4960000   17.0580000   21.8260000  
H 13.2720000   14.5820000   20.0290000  
C 16.5510000   17.1400000   22.6830000  
C 17.1340000   18.2910000   22.1350000  
C 17.3500000   19.4230000   22.8550000  
C 17.0010000   19.5420000   24.2390000  
C 16.2390000   18.4560000   24.7750000  
C 16.1000000   17.2340000   24.0380000  
C 17.7800000   18.5700000   20.8700000  
C 18.2930000   19.8680000   20.9600000  
N 18.1630000   20.3820000   22.1970000  
O 18.7460000   20.0500000   18.6680000  
C 19.0610000   20.5780000   19.8930000  
O 19.7110000   21.5570000   20.0150000  
O 15.7720000   18.5950000   26.0580000  
O 15.4950000   16.1130000   24.6730000  
H 17.8880000   17.8910000   20.0980000  
H 18.4380000   19.1990000   18.8230000  
H 18.3660000   21.2160000   22.5710000  
H 15.5310000   17.6890000   26.4220000  
H 15.6190000   15.3950000   24.0170000  
C 17.4570000   20.7010000   25.1850000  
C 17.3660000   22.0130000   24.7200000  
C 18.0220000   23.0130000   25.4030000  
C 18.8510000   22.7940000   26.5130000  
C 19.0310000   21.4930000   26.9400000  
C 18.2860000   20.4520000   26.3500000  
C 16.6850000   22.7140000   23.6360000  
C 16.9620000   24.0520000   23.7110000  
N 17.8110000   24.2740000   24.7760000  
O 15.5510000   24.6600000   21.8870000  
C 16.4520000   25.1020000   22.8330000  
O 16.6900000   26.3070000   22.8700000  
O 19.8860000   21.2360000   27.8900000  
O 18.4590000   19.1470000   26.7250000  
H 15.9720000   22.2390000   22.8940000  
H 15.5040000   23.7280000   21.9580000  
H 18.1100000   25.2020000   25.1330000  
H 19.7810000   20.3180000   28.0090000  
H 18.1160000   18.5950000   25.9880000  
H 19.3080000   23.6520000   26.9300000  
