78
111 
C 12.4490000   18.0400000   27.7070000  
C 13.1090000   18.9880000   28.4530000  
C 14.1700000   19.6990000   27.9090000  
C 14.5710000   19.4160000   26.6390000  
C 14.1350000   18.2900000   25.8640000  
C 12.9670000   17.6820000   26.4260000  
C 15.0020000   20.7710000   28.4120000  
C 15.9010000   21.0940000   27.4160000  
N 15.6430000   20.1900000   26.3210000  
O 16.9720000   22.8300000   28.5370000  
C 16.9850000   22.0240000   27.4180000  
O 17.7640000   22.0630000   26.5100000  
O 12.3090000   16.7250000   25.7240000  
O 11.4260000   17.2810000   28.3110000  
H 12.7220000   19.3510000   29.4740000  
H 15.0370000   21.0910000   29.4330000  
H 16.3040000   22.3400000   29.0790000  
H 16.1010000   20.3950000   25.4130000  
H 12.3590000   17.0100000   24.8160000  
H 11.3140000   16.4720000   27.7180000  
C 14.7420000   17.8660000   24.5520000  
C 16.0520000   17.4460000   24.6370000  
C 16.7900000   17.2810000   23.4950000  
C 16.2230000   17.3380000   22.1960000  
C 14.8520000   17.4890000   22.1480000  
C 14.0760000   17.8110000   23.3100000  
C 16.9420000   17.4280000   25.7600000  
C 18.1750000   17.1130000   25.2270000  
N 18.0880000   17.0150000   23.8750000  
O 19.0870000   17.1540000   27.3220000  
C 19.4100000   17.0030000   26.0040000  
O 20.5540000   16.9050000   25.5440000  
O 14.1870000   17.3200000   20.9450000  
O 12.8050000   18.1960000   23.2170000  
H 16.6460000   17.8010000   26.7570000  
H 18.1320000   17.1090000   27.3100000  
H 18.8850000   16.8260000   23.2860000  
H 14.7110000   16.8900000   20.2570000  
H 12.4020000   17.7920000   22.4730000  
C 16.9400000   17.0920000   20.9590000  
C 17.5940000   15.8550000   20.8220000  
C 18.2840000   15.6180000   19.6610000  
C 18.3690000   16.4550000   18.5430000  
C 17.7020000   17.7210000   18.6940000  
C 17.0210000   18.0660000   19.8900000  
C 17.7380000   14.6550000   21.5810000  
C 18.6530000   13.8360000   20.8680000  
N 19.0130000   14.4780000   19.7010000  
O 18.2970000   11.9640000   22.2320000  
C 19.0270000   12.4660000   21.2290000  
O 19.8300000   11.8100000   20.5950000  
O 17.6750000   18.5250000   17.5980000  
O 16.3550000   19.2570000   19.9700000  
H 17.2750000   14.3620000   22.5110000  
H 17.6420000   12.7040000   22.2680000  
H 19.6820000   14.3070000   19.0460000  
H 17.0560000   19.2630000   17.6860000  
H 15.7840000   19.3370000   20.7770000  
C 19.1800000   16.0680000   17.3520000  
C 18.8720000   14.8990000   16.5830000  
C 19.7540000   14.5770000   15.5300000  
C 20.7570000   15.4360000   15.1070000  
C 21.0010000   16.5770000   15.7970000  
C 20.2690000   16.8830000   16.9080000  
C 17.7990000   13.9250000   16.5810000  
C 18.0300000   13.1390000   15.4330000  
N 19.2860000   13.4740000   14.8390000  
O 15.9050000   12.1860000   15.5040000  
C 17.0470000   12.2700000   14.8090000  
O 17.1660000   11.7660000   13.6960000  
O 22.0450000   17.3280000   15.5280000  
O 20.4990000   18.0380000   17.5930000  
H 16.9210000   13.9900000   17.1760000  
H 16.0790000   12.5040000   16.3890000  
H 19.5840000   13.2030000   13.9000000  
H 22.0810000   17.9170000   16.3160000  
H 19.7650000   18.1070000   18.2320000  
H 21.3900000   15.1400000   14.3100000  
