78
111 
C 21.1200000   16.0290000   28.1440000  
C 21.5630000   14.7350000   28.3180000  
C 21.5330000   13.8830000   27.1920000  
C 20.9100000   14.2590000   26.0360000  
C 20.3310000   15.5150000   25.7580000  
C 20.4780000   16.3530000   26.8750000  
C 21.8780000   12.4890000   27.0080000  
C 21.6310000   12.1600000   25.6740000  
N 20.9580000   13.2600000   25.1080000  
O 22.1320000    9.7830000   25.7780000  
C 21.8450000   10.8520000   24.9560000  
O 21.6130000   10.6990000   23.7820000  
O 19.9890000   17.5910000   26.7520000  
O 21.1150000   16.9050000   29.1810000  
H 22.0060000   14.3150000   29.2210000  
H 22.2590000   11.8570000   27.7320000  
H 22.3550000   10.2570000   26.6090000  
H 20.6530000   13.4110000   24.1520000  
H 19.4680000   17.7390000   25.9490000  
H 20.3770000   17.4560000   29.2210000  
C 19.6320000   15.8830000   24.4880000  
C 18.4000000   15.2420000   24.2170000  
C 17.6670000   15.6610000   23.1430000  
C 17.9280000   16.7480000   22.2450000  
C 19.1990000   17.4100000   22.6100000  
C 20.0020000   16.9480000   23.6660000  
C 17.6400000   14.1980000   24.8870000  
C 16.5480000   13.9140000   24.0710000  
N 16.5370000   14.8010000   22.9600000  
O 15.6630000   12.2270000   25.4130000  
C 15.4350000   12.9050000   24.3630000  
O 14.4640000   12.8580000   23.6180000  
O 19.7150000   18.4690000   21.8400000  
O 21.1830000   17.6090000   23.8250000  
H 17.8280000   13.8040000   25.8520000  
H 16.5140000   12.5540000   25.7550000  
H 15.9280000   14.8060000   22.1880000  
H 19.0470000   18.7360000   21.1940000  
H 21.1290000   18.3500000   23.2020000  
C 17.0840000   17.1640000   21.0570000  
C 15.9830000   18.0580000   21.2100000  
C 15.2230000   18.3280000   20.1130000  
C 15.4700000   17.8320000   18.7800000  
C 16.4880000   16.8960000   18.6970000  
C 17.2810000   16.5810000   19.7750000  
C 15.2920000   18.7620000   22.3570000  
C 14.2670000   19.5420000   21.7750000  
N 14.2300000   19.2050000   20.4380000  
O 13.4310000   20.7250000   23.6690000  
C 13.4540000   20.6360000   22.3020000  
O 12.7630000   21.4010000   21.6190000  
O 16.7190000   16.3320000   17.4840000  
O 18.1790000   15.6040000   19.6330000  
H 15.5770000   18.9590000   23.4000000  
H 14.0080000   20.0730000   24.0550000  
H 13.6240000   19.6760000   19.8180000  
H 17.6140000   16.0010000   17.5220000  
H 18.6940000   15.5170000   20.4930000  
C 14.5950000   18.1070000   17.5940000  
C 14.2540000   19.4360000   17.1780000  
C 13.3750000   19.6250000   16.1040000  
C 12.7270000   18.6200000   15.3640000  
C 12.9930000   17.2860000   15.8070000  
C 13.8930000   17.0300000   16.9040000  
C 14.7500000   20.7340000   17.5010000  
C 14.0310000   21.6820000   16.8150000  
N 13.2190000   20.9950000   15.9090000  
O 15.1230000   23.6000000   17.8240000  
C 14.1960000   23.1580000   16.8980000  
O 13.5030000   23.8920000   16.1880000  
O 12.3190000   16.2540000   15.1700000  
O 14.0130000   15.7620000   17.3100000  
H 15.4670000   21.0300000   18.2340000  
H 15.4400000   22.8060000   18.2320000  
H 12.7340000   21.4150000   15.1560000  
H 12.4880000   15.3830000   15.6360000  
H 14.9780000   15.4920000   17.1960000  
H 11.9140000   18.9100000   14.6500000  
