78
111 
C 14.4600000   18.0270000   28.8040000  
C 15.2730000   19.0350000   29.3810000  
C 16.4190000   19.4040000   28.6340000  
C 16.7270000   18.8620000   27.4480000  
C 15.8710000   17.9530000   26.7580000  
C 14.6870000   17.5510000   27.4450000  
C 17.3720000   20.4400000   28.9160000  
C 18.3180000   20.4880000   27.7870000  
N 17.8590000   19.4640000   26.9000000  
O 19.6590000   22.2920000   28.6210000  
C 19.4800000   21.4170000   27.6520000  
O 20.0920000   21.4510000   26.5770000  
O 13.7900000   16.6680000   26.9490000  
O 13.4190000   17.6120000   29.6000000  
H 14.9690000   19.3680000   30.3860000  
H 17.2990000   21.1160000   29.7390000  
H 19.0700000   21.8820000   29.2490000  
H 18.2980000   19.3210000   26.0090000  
H 13.7490000   16.9140000   26.0080000  
H 12.8620000   16.9870000   29.0450000  
C 16.1430000   17.4600000   25.3680000  
C 17.3010000   16.7850000   25.0950000  
C 17.6560000   16.4660000   23.8250000  
C 16.9100000   16.8140000   22.6640000  
C 15.6990000   17.4790000   22.9520000  
C 15.3200000   17.8130000   24.2780000  
C 18.2920000   16.1230000   25.9000000  
C 19.2710000   15.5830000   25.0750000  
N 18.8140000   15.7450000   23.7640000  
O 20.4750000   14.6790000   26.9330000  
C 20.3720000   14.8250000   25.5480000  
O 21.1840000   14.2900000   24.8390000  
O 14.9050000   17.8850000   21.9160000  
O 14.1520000   18.4050000   24.5030000  
H 18.2590000   16.0530000   26.9590000  
H 19.5610000   14.7230000   27.1000000  
H 19.1610000   15.2620000   22.9430000  
H 15.2150000   17.5500000   21.0280000  
H 13.6350000   18.3330000   23.7080000  
C 17.2860000   16.2860000   21.3120000  
C 16.3500000   15.6430000   20.4780000  
C 16.7290000   15.3250000   19.2160000  
C 17.9250000   15.4490000   18.5500000  
C 18.9610000   15.8860000   19.4230000  
C 18.6190000   16.4170000   20.6840000  
C 14.9540000   15.3990000   20.6290000  
C 14.5260000   15.1280000   19.3290000  
N 15.6720000   14.9380000   18.5190000  
O 12.2650000   14.6000000   19.7680000  
C 13.1700000   14.8220000   18.8230000  
O 12.8760000   14.9000000   17.6510000  
O 20.2510000   16.0120000   19.0450000  
O 19.5940000   17.1310000   21.2890000  
H 14.3100000   15.5060000   21.4770000  
H 12.6660000   14.5370000   20.6350000  
H 15.6740000   14.6300000   17.5350000  
H 20.5170000   16.7660000   19.6060000  
H 19.1930000   17.6900000   22.0020000  
C 18.0120000   15.0490000   17.0920000  
C 17.5820000   15.9540000   16.0470000  
C 17.6600000   15.6040000   14.7310000  
C 18.1410000   14.3270000   14.2820000  
C 18.5450000   13.4970000   15.3570000  
C 18.5920000   13.8550000   16.7420000  
C 17.0070000   17.3270000   16.1180000  
C 16.7480000   17.7440000   14.8170000  
N 17.0500000   16.5990000   13.9720000  
O 16.2890000   19.9860000   15.2640000  
C 16.4300000   19.0940000   14.3290000  
O 16.2610000   19.3210000   13.1550000  
O 19.0570000   12.2740000   15.0780000  
O 19.0340000   12.9500000   17.6860000  
H 16.8280000   17.9330000   16.9870000  
H 16.3690000   19.4360000   16.0190000  
H 16.8670000   16.5310000   13.0010000  
H 19.4060000   11.8780000   15.9220000  
H 19.2130000   13.3980000   18.5230000  
H 18.0970000   13.9970000   13.2620000  
