78
111 
C 13.5390000   13.5930000   16.4380000  
C 13.5790000   12.1970000   16.5930000  
C 13.9240000   11.6700000   17.8570000  
C 14.1250000   12.5380000   18.9330000  
C 13.9550000   13.9430000   18.8470000  
C 13.7100000   14.4280000   17.5410000  
C 14.4280000   10.3830000   18.2610000  
C 14.7520000   10.4740000   19.5840000  
N 14.5790000   11.7980000   20.0130000  
O 15.3250000    8.1640000   19.8350000  
C 15.2300000    9.3690000   20.4710000  
O 15.5660000    9.5200000   21.6730000  
O 13.4490000   15.7560000   17.3330000  
O 13.3430000   14.1760000   15.1890000  
H 13.4720000   11.6040000   15.7000000  
H 14.5290000    9.5010000   17.5840000  
H 14.8420000    8.3840000   18.9930000  
H 14.5590000   12.0340000   20.9560000  
H 13.4060000   16.1990000   18.2060000  
H 13.2050000   15.1270000   15.2870000  
C 14.5460000   14.8080000   19.9600000  
C 15.9630000   14.8210000   20.1050000  
C 16.4760000   15.6140000   21.0470000  
C 15.7710000   16.5010000   21.9190000  
C 14.3390000   16.4870000   21.7880000  
C 13.7350000   15.6050000   20.8520000  
C 17.0290000   13.9940000   19.5730000  
C 18.1790000   14.4920000   20.1550000  
N 17.8450000   15.5080000   21.0300000  
O 19.6320000   13.0230000   19.0270000  
C 19.5810000   14.0290000   19.9260000  
O 20.5890000   14.5020000   20.4060000  
O 13.5240000   17.1380000   22.6160000  
O 12.4040000   15.3990000   20.7820000  
H 16.9900000   13.1610000   18.8920000  
H 18.7050000   12.7780000   18.8570000  
H 18.5040000   16.1890000   21.3920000  
H 14.0250000   17.8040000   23.1170000  
H 12.0710000   16.0920000   21.2390000  
C 16.3960000   17.4290000   22.8320000  
C 17.1400000   18.4330000   22.2670000  
C 18.0700000   19.1520000   23.0120000  
C 18.2170000   18.9870000   24.4010000  
C 17.3020000   18.0630000   24.9670000  
C 16.3700000   17.3170000   24.2110000  
C 17.4030000   18.7580000   20.8780000  
C 18.6540000   19.4160000   20.9030000  
N 18.9790000   19.8300000   22.2040000  
O 19.0780000   19.0200000   18.5840000  
C 19.4600000   19.6920000   19.6950000  
O 20.3880000   20.4650000   19.6820000  
O 17.2830000   17.8820000   26.3510000  
O 15.3840000   16.4790000   24.7170000  
H 16.9030000   18.4980000   19.9910000  
H 18.2230000   18.7610000   18.9230000  
H 19.7770000   20.4460000   22.4590000  
H 16.5270000   17.3960000   26.6650000  
H 15.1670000   15.8610000   23.9840000  
C 19.2830000   19.7260000   25.2240000  
C 19.3250000   21.0630000   25.3010000  
C 20.3580000   21.7790000   25.8800000  
C 21.4960000   21.1700000   26.3970000  
C 21.4760000   19.7350000   26.4380000  
C 20.3620000   19.0340000   25.8700000  
C 18.3300000   22.0120000   24.9250000  
C 18.7190000   23.1920000   25.5050000  
N 20.0100000   23.1030000   25.9760000  
O 16.8170000   24.5690000   24.8610000  
C 18.0460000   24.5080000   25.3590000  
O 18.5990000   25.4830000   25.8000000  
O 22.5420000   18.9960000   27.0040000  
O 20.3710000   17.7270000   26.0270000  
H 17.4320000   21.8130000   24.3910000  
H 16.5530000   23.7350000   24.5290000  
H 20.6290000   23.9120000   26.2370000  
H 22.3310000   18.0350000   26.8110000  
H 19.4490000   17.4540000   25.9020000  
H 22.3350000   21.6570000   26.8980000  
