78
111 
C 19.8340000   16.6360000   28.9020000  
C 20.8640000   15.6950000   28.8630000  
C 21.1550000   15.0970000   27.6630000  
C 20.3470000   15.3100000   26.5950000  
C 19.2720000   16.1930000   26.5700000  
C 19.0450000   16.8970000   27.7630000  
C 22.2220000   14.1900000   27.3310000  
C 21.9440000   13.8970000   25.9790000  
N 20.7910000   14.4940000   25.4770000  
O 24.0470000   12.6150000   25.7190000  
C 22.8810000   13.0600000   25.1620000  
O 22.6850000   12.8490000   23.9360000  
O 17.9840000   17.7710000   27.9500000  
O 19.6430000   17.2780000   30.0750000  
H 21.4100000   15.4940000   29.8020000  
H 23.1000000   13.8960000   27.8650000  
H 23.9610000   12.6450000   26.7000000  
H 20.2790000   14.4320000   24.6180000  
H 17.5960000   18.1150000   27.1250000  
H 18.9280000   17.8030000   29.9410000  
C 18.5810000   16.3850000   25.2470000  
C 17.8860000   15.3980000   24.5020000  
C 17.4010000   15.7020000   23.2770000  
C 17.5680000   16.8410000   22.5210000  
C 18.1590000   17.8450000   23.2390000  
C 18.6480000   17.6760000   24.5620000  
C 17.5150000   14.0510000   24.8200000  
C 16.8720000   13.5640000   23.6900000  
N 16.8740000   14.5550000   22.7700000  
O 16.2080000   11.4490000   24.5350000  
C 16.2610000   12.2680000   23.4180000  
O 15.7950000   11.8700000   22.3240000  
O 18.4290000   19.0810000   22.6760000  
O 19.5070000   18.6400000   25.0870000  
H 17.6580000   13.5530000   25.7890000  
H 16.7170000   11.9820000   25.1870000  
H 16.5400000   14.4620000   21.8580000  
H 17.8360000   19.1370000   21.8970000  
H 19.8520000   19.0280000   24.2650000  
C 16.9860000   17.0140000   21.1830000  
C 15.7670000   17.7470000   21.1050000  
C 15.1000000   17.7840000   19.9500000  
C 15.4840000   17.2060000   18.7110000  
C 16.6200000   16.4250000   18.8080000  
C 17.3870000   16.3500000   20.0240000  
C 14.9600000   18.4500000   22.0620000  
C 13.7840000   18.8030000   21.4410000  
N 13.9360000   18.4870000   20.0810000  
O 12.7560000   19.7210000   23.4210000  
C 12.6450000   19.5850000   22.0690000  
O 11.6230000   19.9080000   21.4840000  
O 17.0400000   15.7000000   17.6940000  
O 18.5790000   15.6520000   20.0070000  
H 15.2520000   18.6460000   23.0890000  
H 13.4700000   19.0930000   23.6480000  
H 13.2960000   18.7220000   19.3790000  
H 17.9630000   15.4780000   17.8310000  
H 18.8620000   15.4920000   20.9220000  
C 14.8050000   17.4990000   17.3810000  
C 14.8010000   18.7470000   16.7520000  
C 14.2850000   18.9500000   15.4820000  
C 13.6420000   18.0230000   14.7490000  
C 13.4250000   16.8000000   15.3720000  
C 14.0820000   16.5190000   16.6350000  
C 15.4650000   19.9680000   17.1140000  
C 15.2490000   20.8340000   16.0780000  
N 14.4880000   20.2350000   15.0810000  
O 16.5650000   22.6320000   17.0700000  
C 15.6980000   22.2610000   16.0230000  
O 15.3530000   23.0400000   15.1130000  
O 12.6080000   15.9290000   14.7900000  
O 13.9550000   15.2280000   17.1300000  
H 16.0870000   20.0890000   18.0060000  
H 16.7260000   21.7700000   17.4440000  
H 13.9410000   20.7090000   14.4080000  
H 12.7270000   15.0680000   15.3000000  
H 14.5930000   14.9700000   17.8320000  
H 13.0740000   18.2670000   13.8270000  
