78
111 
C 13.6910000   12.5670000   16.4830000  
C 13.4790000   11.2990000   17.0650000  
C 14.0880000   11.1220000   18.3440000  
C 14.6430000   12.1930000   18.9700000  
C 14.8720000   13.4940000   18.4230000  
C 14.4250000   13.6330000   17.1170000  
C 13.9810000   10.1360000   19.3930000  
C 14.4050000   10.7540000   20.5880000  
N 14.9240000   12.0010000   20.3220000  
O 14.4290000    8.8250000   21.9400000  
C 14.6460000   10.1540000   21.9000000  
O 15.0870000   10.7200000   22.8610000  
O 14.4510000   14.8560000   16.5150000  
O 13.2490000   12.8410000   15.2110000  
H 12.9490000   10.4770000   16.5520000  
H 13.4930000    9.1330000   19.2400000  
H 14.1950000    8.6630000   20.9810000  
H 15.5410000   12.4880000   20.9630000  
H 14.4100000   15.4530000   17.2620000  
H 13.1750000   13.7890000   15.1000000  
C 15.5170000   14.6010000   19.2350000  
C 16.8270000   14.4680000   19.6920000  
C 17.3600000   15.3670000   20.5990000  
C 16.6340000   16.4460000   21.1680000  
C 15.2800000   16.4830000   20.7810000  
C 14.6700000   15.5800000   19.8490000  
C 17.8650000   13.4560000   19.4560000  
C 18.9870000   13.8910000   20.1930000  
N 18.6540000   15.1330000   20.7960000  
O 20.6250000   12.1960000   19.7210000  
C 20.3080000   13.3010000   20.4760000  
O 21.1520000   13.8630000   21.1460000  
O 14.4600000   17.2770000   21.4880000  
O 13.3150000   15.6380000   19.5620000  
H 17.7180000   12.5720000   18.9030000  
H 19.9020000   12.1360000   19.1110000  
H 19.3020000   15.7000000   21.3350000  
H 15.0380000   17.8910000   21.9530000  
H 12.9490000   16.2260000   20.1860000  
C 17.2710000   17.3220000   22.2180000  
C 18.2720000   18.2870000   21.9900000  
C 18.6760000   19.0910000   23.0590000  
C 18.2490000   19.0490000   24.3790000  
C 17.2300000   18.0770000   24.6070000  
C 16.7070000   17.2750000   23.5070000  
C 19.0930000   18.7170000   20.8250000  
C 19.9410000   19.7130000   21.2980000  
N 19.6750000   20.0040000   22.6470000  
O 21.2170000   19.8650000   19.3270000  
C 21.0930000   20.2480000   20.6070000  
O 21.9020000   21.0550000   21.0660000  
O 16.7790000   17.8480000   25.9010000  
O 15.7600000   16.2580000   23.7790000  
H 19.1680000   18.2280000   19.9360000  
H 20.4130000   19.4030000   19.1380000  
H 20.2610000   20.6860000   23.1120000  
H 16.0220000   17.2330000   25.9190000  
H 15.5950000   15.6380000   23.0270000  
C 18.6360000   20.0550000   25.3640000  
C 18.0610000   21.3220000   25.1560000  
C 18.3040000   22.4070000   25.9460000  
C 19.2370000   22.3260000   27.0310000  
C 19.7400000   21.0330000   27.3570000  
C 19.5190000   19.9240000   26.5300000  
C 17.0270000   21.7230000   24.2040000  
C 16.6890000   23.0970000   24.5090000  
N 17.5090000   23.4770000   25.6190000  
O 14.8710000   23.3870000   22.9350000  
C 15.6810000   23.9460000   23.8890000  
O 15.5570000   25.1030000   24.2220000  
O 20.6440000   21.0110000   28.3930000  
O 20.0110000   18.7120000   26.9020000  
H 16.6190000   21.1200000   23.3540000  
H 15.1280000   22.5000000   23.0070000  
H 17.5840000   24.3860000   26.0630000  
H 20.9470000   20.0680000   28.5430000  
H 19.4560000   17.9640000   26.6200000  
H 19.3740000   23.2090000   27.6390000  
