78
111 
C 16.7990000   11.4580000   16.8770000  
C 15.5510000   10.7380000   16.8310000  
C 14.5790000   11.0170000   17.8210000  
C 14.6870000   12.0290000   18.6970000  
C 15.8650000   12.8920000   18.7690000  
C 16.9060000   12.5050000   17.8270000  
C 13.2460000   10.4470000   18.0460000  
C 12.6520000   11.2050000   19.0180000  
N 13.6160000   12.1810000   19.4900000  
O 10.5580000   10.0700000   19.0350000  
C 11.3010000   11.0560000   19.5790000  
O 10.8160000   11.7240000   20.4450000  
O 18.0160000   13.3170000   17.7530000  
O 17.8270000   11.2080000   15.9500000  
H 15.3920000    9.8880000   16.1820000  
H 12.7130000    9.5500000   17.5820000  
H 11.1350000    9.6030000   18.4610000  
H 13.3540000   12.9410000   20.0990000  
H 18.2040000   13.7530000   18.5500000  
H 18.5680000   11.8060000   16.0590000  
C 16.0190000   14.1220000   19.6230000  
C 17.0560000   14.0880000   20.6020000  
C 17.2740000   15.1970000   21.3850000  
C 16.6260000   16.4020000   21.2760000  
C 15.5150000   16.4060000   20.3570000  
C 15.1490000   15.2140000   19.6180000  
C 18.0870000   13.1300000   20.9700000  
C 18.9160000   13.7060000   21.8870000  
N 18.4050000   15.0070000   22.1530000  
O 20.0060000   11.7420000   22.3530000  
C 19.9480000   13.0170000   22.6020000  
O 20.6470000   13.6160000   23.4090000  
O 14.7220000   17.5750000   20.1200000  
O 14.0450000   15.3970000   18.8600000  
H 18.2760000   12.1590000   20.5100000  
H 19.1860000   11.5470000   21.8070000  
H 18.7360000   15.5980000   22.9590000  
H 15.2060000   18.2740000   20.6000000  
H 13.4460000   16.0630000   19.2940000  
C 17.0240000   17.5300000   22.2250000  
C 17.6400000   18.6740000   21.6970000  
C 18.2590000   19.6050000   22.4880000  
C 18.3550000   19.4940000   23.8680000  
C 17.6330000   18.3640000   24.4530000  
C 16.9970000   17.3800000   23.6630000  
C 17.9150000   18.9750000   20.3100000  
C 18.6570000   20.1710000   20.3970000  
N 18.9000000   20.5890000   21.7180000  
O 18.7780000   20.4700000   18.0230000  
C 19.1160000   20.9010000   19.2500000  
O 19.7490000   21.9350000   19.4120000  
O 17.7450000   18.1330000   25.7900000  
O 16.3640000   16.3480000   24.2510000  
H 17.6390000   18.3560000   19.4560000  
H 18.0840000   19.8670000   18.0240000  
H 19.3670000   21.4390000   22.0080000  
H 17.3140000   17.3210000   26.0100000  
H 15.8380000   15.8410000   23.5280000  
C 19.0220000   20.5860000   24.6610000  
C 18.2470000   21.3860000   25.5270000  
C 18.8210000   22.4460000   26.2450000  
C 20.1540000   22.6570000   26.2920000  
C 20.9980000   21.8620000   25.4770000  
C 20.4080000   20.8850000   24.5950000  
C 16.8170000   21.4280000   25.7790000  
C 16.5880000   22.4950000   26.6440000  
N 17.8580000   23.1250000   26.9180000  
O 14.3480000   22.0510000   27.0470000  
C 15.3740000   22.8310000   27.3290000  
O 15.3260000   23.7750000   28.0930000  
O 22.3850000   22.0240000   25.5390000  
O 21.2030000   20.0360000   23.8990000  
H 16.0210000   20.8080000   25.4890000  
H 14.7180000   21.2970000   26.5100000  
H 18.0080000   23.9090000   27.5280000  
H 22.7730000   21.5190000   24.7610000  
H 20.7470000   19.6320000   23.1460000  
H 20.6490000   23.3580000   26.9570000  
