78
111 
C 13.4020000   18.5710000   28.0010000  
C 14.2990000   19.1870000   28.9310000  
C 15.6250000   19.4270000   28.5200000  
C 16.0100000   19.1770000   27.2990000  
C 15.2180000   18.4940000   26.3230000  
C 13.8840000   18.1700000   26.7660000  
C 16.6390000   20.2110000   29.1390000  
C 17.6370000   20.3740000   28.2050000  
N 17.2780000   19.6760000   27.0170000  
O 18.7710000   22.0480000   29.3840000  
C 18.7700000   21.2490000   28.3000000  
O 19.6980000   21.3320000   27.5140000  
O 13.0430000   17.5840000   25.8870000  
O 12.0770000   18.2810000   28.3030000  
H 13.8500000   19.5260000   29.8270000  
H 16.7250000   20.7010000   30.1140000  
H 17.9820000   21.9180000   29.8980000  
H 17.7900000   19.6650000   26.1200000  
H 13.5980000   17.0530000   25.2510000  
H 11.6340000   18.0410000   27.4360000  
C 15.7420000   18.2690000   24.9640000  
C 16.6660000   17.2440000   24.7140000  
C 17.1280000   16.9530000   23.5090000  
C 16.7550000   17.5970000   22.3630000  
C 15.8110000   18.7050000   22.4880000  
C 15.3540000   19.0390000   23.7970000  
C 17.1640000   16.2150000   25.6080000  
C 17.8960000   15.3650000   24.8400000  
N 17.9210000   15.8240000   23.5300000  
O 18.5940000   13.9230000   26.6350000  
C 18.7100000   14.1730000   25.3090000  
O 19.4500000   13.5200000   24.5430000  
O 15.5250000   19.3290000   21.2740000  
O 14.3720000   19.9580000   23.8480000  
H 16.8690000   15.9330000   26.6390000  
H 17.7410000   14.2960000   26.7960000  
H 18.2770000   15.3510000   22.8030000  
H 15.7560000   18.6960000   20.6070000  
H 14.4600000   20.5840000   23.1330000  
C 17.2650000   17.1870000   21.0950000  
C 16.9640000   15.9810000   20.5360000  
C 17.4520000   15.5610000   19.3400000  
C 18.3910000   16.2090000   18.5890000  
C 18.7380000   17.5250000   19.1060000  
C 18.1780000   17.9600000   20.3520000  
C 16.0460000   15.0400000   20.9380000  
C 16.0500000   14.0500000   19.9550000  
N 17.0120000   14.3480000   19.0570000  
O 14.2500000   12.9310000   20.9620000  
C 15.1790000   12.9070000   19.9620000  
O 15.2450000   12.0420000   19.1110000  
O 19.5970000   18.2560000   18.4520000  
O 18.7330000   19.1620000   20.7680000  
H 15.4920000   15.0520000   21.8460000  
H 14.3690000   13.7770000   21.4050000  
H 17.2490000   13.8540000   18.2310000  
H 19.4330000   19.1950000   18.6760000  
H 18.3740000   19.5440000   21.6010000  
C 19.0760000   15.6240000   17.4160000  
C 18.2480000   15.3560000   16.2890000  
C 18.7550000   14.9970000   15.0720000  
C 20.1360000   14.8120000   14.9430000  
C 21.0220000   15.0660000   16.0410000  
C 20.4490000   15.4170000   17.3090000  
C 16.8480000   15.4430000   16.1160000  
C 16.5250000   15.0620000   14.8090000  
N 17.7230000   14.7430000   14.2310000  
O 14.2520000   15.7900000   14.8600000  
C 15.2820000   15.2770000   14.0820000  
O 15.1290000   15.1380000   12.8940000  
O 22.3840000   15.0410000   15.8810000  
O 21.2750000   15.7410000   18.3890000  
H 16.1670000   15.9550000   16.7560000  
H 14.5080000   15.7750000   15.7710000  
H 17.8020000   14.5700000   13.2750000  
H 22.8440000   15.0920000   16.7260000  
H 20.6620000   16.1970000   19.0490000  
H 20.5640000   14.4770000   13.9930000  
