78
111 
C 18.0730000   11.2150000   16.9790000  
C 17.4900000   10.0790000   17.5420000  
C 16.7230000   10.2250000   18.7740000  
C 16.6920000   11.4100000   19.3900000  
C 17.3060000   12.5430000   18.9770000  
C 17.9540000   12.4450000   17.6480000  
C 15.8280000    9.3790000   19.4930000  
C 15.2140000   10.1760000   20.4520000  
N 15.8500000   11.4240000   20.4660000  
O 13.7830000    8.4910000   21.2540000  
C 14.0790000    9.7760000   21.3690000  
O 13.5540000   10.5930000   22.0750000  
O 18.3890000   13.4740000   16.9610000  
O 18.6860000   11.1040000   15.7320000  
H 17.5450000    9.1660000   17.0060000  
H 15.4910000    8.3200000   19.2310000  
H 14.4790000    8.0640000   20.7770000  
H 15.7370000   12.2240000   21.0880000  
H 17.8850000   14.2650000   17.3360000  
H 19.0160000   12.0190000   15.4190000  
C 17.2740000   13.7840000   19.7770000  
C 17.7490000   13.7690000   21.0920000  
C 17.7240000   14.9000000   21.8280000  
C 17.0540000   16.0840000   21.4900000  
C 16.4710000   16.0670000   20.1970000  
C 16.5800000   14.9490000   19.3050000  
C 18.4400000   12.7310000   21.9020000  
C 18.8750000   13.3910000   23.0170000  
N 18.3870000   14.7070000   23.0240000  
O 20.1680000   11.5820000   23.8960000  
C 19.7690000   12.8390000   24.0790000  
O 20.1540000   13.5170000   24.9910000  
O 15.8250000   17.1410000   19.7100000  
O 16.0460000   14.9790000   18.0400000  
H 18.7530000   11.7500000   21.6670000  
H 19.6440000   11.1750000   23.1770000  
H 18.4760000   15.3830000   23.7740000  
H 16.0480000   17.9220000   20.1980000  
H 15.6860000   15.8210000   17.7420000  
C 16.9580000   17.2590000   22.3720000  
C 17.5710000   18.4880000   22.0040000  
C 17.4450000   19.5940000   22.7760000  
C 16.7500000   19.6450000   23.9770000  
C 16.0780000   18.4450000   24.3180000  
C 16.1670000   17.2990000   23.5730000  
C 18.4450000   18.9670000   20.9050000  
C 18.7340000   20.2730000   21.1870000  
N 18.1040000   20.6990000   22.3030000  
O 20.1150000   20.6170000   19.3680000  
C 19.7060000   21.1550000   20.4980000  
O 20.2090000   22.1810000   20.9110000  
O 15.3740000   18.3610000   25.5070000  
O 15.3960000   16.2310000   23.9810000  
H 18.8360000   18.3660000   20.0720000  
H 19.5610000   19.8380000   19.2890000  
H 18.0900000   21.6400000   22.6160000  
H 15.2250000   17.3890000   25.6860000  
H 15.4480000   15.5460000   23.3130000  
C 16.7320000   20.9020000   24.7900000  
C 16.1770000   22.1100000   24.2000000  
C 16.5040000   23.3750000   24.7240000  
C 17.2340000   23.5480000   25.9390000  
C 17.6950000   22.3570000   26.5450000  
C 17.5170000   21.0350000   25.9590000  
C 15.4440000   22.3970000   22.9480000  
C 15.3560000   23.7880000   22.8120000  
N 16.0020000   24.3900000   23.9060000  
O 14.0720000   23.8490000   20.7410000  
C 14.5650000   24.5170000   21.7270000  
O 14.4340000   25.7110000   21.7550000  
O 18.4100000   22.4080000   27.6930000  
O 18.2090000   19.9660000   26.4200000  
H 15.0910000   21.6450000   22.2860000  
H 14.3200000   22.9560000   20.9260000  
H 16.0760000   25.3750000   24.0890000  
H 18.4060000   21.5070000   28.0450000  
H 17.6240000   19.2350000   26.1050000  
H 17.4490000   24.5540000   26.3190000  
