78
111 
C 10.1210000   17.3600000   18.8870000  
C  9.4300000   16.1430000   19.1320000  
C 10.0120000   15.1940000   20.0050000  
C 11.2690000   15.4110000   20.4480000  
C 12.0510000   16.5770000   20.2620000  
C 11.3910000   17.6270000   19.4230000  
C  9.6250000   13.9190000   20.4370000  
C 10.7280000   13.3490000   21.1300000  
N 11.7970000   14.3220000   21.1080000  
O  9.5840000   11.4070000   21.9100000  
C 10.7340000   12.1060000   21.8920000  
O 11.7700000   11.5900000   22.3170000  
O 11.9980000   18.8940000   19.2180000  
O  9.5770000   18.3580000   18.1730000  
H  8.4730000   16.0080000   18.7740000  
H  8.6770000   13.5010000   20.4400000  
H  9.0490000   12.0090000   21.3850000  
H 12.7260000   14.2550000   21.5440000  
H 12.8880000   18.8460000   19.6660000  
H  9.8400000   19.2440000   18.4760000  
C 13.4660000   16.8060000   20.6590000  
C 14.4960000   16.9620000   19.7230000  
C 15.8190000   17.1980000   20.1060000  
C 16.2390000   17.1760000   21.4520000  
C 15.2120000   17.0610000   22.3980000  
C 13.8510000   16.8820000   21.9890000  
C 14.4710000   17.0140000   18.2620000  
C 15.8850000   17.1490000   17.9270000  
N 16.6860000   17.2770000   19.0580000  
O 15.4240000   16.9190000   15.6740000  
C 16.3870000   17.1840000   16.5400000  
O 17.4640000   17.6000000   16.1440000  
O 15.4550000   17.1190000   23.7400000  
O 12.9170000   16.8210000   22.9550000  
H 13.6050000   16.9090000   17.5350000  
H 14.7360000   17.1080000   16.3010000  
H 17.6900000   17.5050000   19.2340000  
H 16.3510000   17.1800000   23.9670000  
H 13.4190000   16.8580000   23.7720000  
C 17.7090000   17.1110000   21.8760000  
C 18.3660000   18.2330000   22.4380000  
C 19.6840000   18.2030000   22.7600000  
C 20.5650000   17.1210000   22.5850000  
C 19.9160000   15.9780000   22.0400000  
C 18.5630000   15.9480000   21.6050000  
C 17.9690000   19.5800000   22.7080000  
C 19.0140000   20.3090000   23.1930000  
N 20.1460000   19.4280000   23.2620000  
O 17.9160000   22.4270000   23.0880000  
C 19.1010000   21.7860000   23.4230000  
O 20.1020000   22.4250000   23.8270000  
O 20.6700000   14.8170000   21.9760000  
O 17.9330000   14.7020000   21.3410000  
H 16.9710000   19.9690000   22.6520000  
H 17.3800000   21.7140000   22.7930000  
H 21.0380000   19.7070000   23.6140000  
H 20.1190000   14.1130000   21.6500000  
H 17.1360000   14.5600000   21.8750000  
C 21.9950000   17.2220000   23.0940000  
C 22.4350000   16.6440000   24.3050000  
C 23.8290000   16.6960000   24.6110000  
C 24.8050000   17.2990000   23.8340000  
C 24.3740000   17.8280000   22.6480000  
C 22.9830000   17.8210000   22.2850000  
C 21.7330000   15.9470000   25.3940000  
C 22.6930000   15.7510000   26.4010000  
N 23.9630000   16.2280000   25.9000000  
O 21.1820000   14.9170000   27.9800000  
C 22.4750000   15.1280000   27.7280000  
O 23.3910000   14.7590000   28.4920000  
O 25.2900000   18.4500000   21.9120000  
O 22.5560000   18.4030000   21.1420000  
H 20.6680000   15.7840000   25.4570000  
H 20.6680000   15.0610000   27.1870000  
H 24.8030000   16.3820000   26.4500000  
H 24.9130000   18.7600000   21.0880000  
H 21.6220000   18.5590000   21.2000000  
H 25.8760000   17.4720000   24.2020000  
