78
111 
C 10.5130000   15.7920000   18.1080000  
C 10.2510000   14.4370000   18.4290000  
C 11.1800000   13.6620000   19.2090000  
C 12.3180000   14.2870000   19.6310000  
C 12.6590000   15.6360000   19.3690000  
C 11.7690000   16.3710000   18.5210000  
C 11.1300000   12.4280000   19.8890000  
C 12.2150000   12.3120000   20.7590000  
N 12.9530000   13.5100000   20.5450000  
O 11.5300000   10.3330000   21.7100000  
C 12.5200000   11.2300000   21.7500000  
O 13.4820000   11.1500000   22.5340000  
O 11.9970000   17.6430000   18.1690000  
O  9.6010000   16.6010000   17.5610000  
H  9.2980000   13.9580000   18.1110000  
H 10.2920000   11.6900000   19.9090000  
H 10.9900000   10.6300000   21.0170000  
H 13.7560000   13.8640000   21.0900000  
H 12.8440000   17.8530000   18.4860000  
H  9.9550000   17.4900000   17.4410000  
C 13.9070000   16.2600000   19.8950000  
C 15.2080000   15.8050000   19.4080000  
C 16.3900000   16.2620000   19.9150000  
C 16.4250000   17.1220000   20.9660000  
C 15.1400000   17.4680000   21.5560000  
C 13.9160000   17.0570000   21.0460000  
C 15.5950000   14.7720000   18.5030000  
C 16.9760000   14.6770000   18.5390000  
N 17.4950000   15.7540000   19.3400000  
O 17.1130000   12.6000000   17.2590000  
C 17.7750000   13.5760000   17.9000000  
O 18.9920000   13.5660000   17.9520000  
O 15.1400000   18.2360000   22.6720000  
O 12.7160000   17.5780000   21.5510000  
H 14.9060000   14.1680000   17.8470000  
H 16.1580000   12.8380000   17.3030000  
H 18.4660000   15.7940000   19.5820000  
H 16.0780000   18.1510000   22.9660000  
H 12.9180000   17.9790000   22.4270000  
C 17.7820000   17.3610000   21.5840000  
C 18.2020000   18.6860000   21.6190000  
C 19.2850000   19.0160000   22.3830000  
C 20.2020000   18.1430000   22.9670000  
C 19.7960000   16.7680000   22.9120000  
C 18.5610000   16.4070000   22.3430000  
C 17.5260000   19.9250000   21.3130000  
C 18.2480000   20.9320000   21.9200000  
N 19.3950000   20.3520000   22.5580000  
O 16.6200000   22.6420000   21.4920000  
C 17.8420000   22.3980000   21.9880000  
O 18.5700000   23.3390000   22.3210000  
O 20.6710000   15.8680000   23.4070000  
O 18.2000000   15.1160000   22.3470000  
H 16.5780000   19.9710000   20.8510000  
H 16.5330000   21.9170000   20.8600000  
H 20.0780000   20.8740000   23.0850000  
H 20.3340000   14.9410000   23.4930000  
H 17.4250000   14.9700000   21.7000000  
C 21.4160000   18.5580000   23.6650000  
C 21.5280000   18.3310000   25.0310000  
C 22.6060000   18.8320000   25.7920000  
C 23.6660000   19.4830000   25.2010000  
C 23.5990000   19.7250000   23.8170000  
C 22.4980000   19.2600000   23.0410000  
C 20.6700000   17.6810000   26.0400000  
C 21.2260000   17.8780000   27.2670000  
N 22.5110000   18.3930000   27.1450000  
O 19.3170000   16.9500000   28.3900000  
C 20.5660000   17.4010000   28.5350000  
O 21.0910000   17.3650000   29.6390000  
O 24.6440000   20.4240000   23.2120000  
O 22.4380000   19.4860000   21.6980000  
H 19.8110000   17.0130000   25.8270000  
H 19.2080000   17.0740000   27.3960000  
H 23.2470000   18.4960000   27.8230000  
H 24.3890000   20.6860000   22.3170000  
H 21.4700000   19.4980000   21.4370000  
H 24.4610000   19.9020000   25.7470000  
