78
111 
C  9.9890000   19.5040000   22.5560000  
C  9.1370000   18.3920000   22.5020000  
C  9.6540000   17.1260000   22.1890000  
C 11.0320000   16.9850000   22.0490000  
C 11.9800000   18.0030000   22.0870000  
C 11.3820000   19.2720000   22.3500000  
C  9.0660000   15.8290000   21.9690000  
C 10.1230000   14.9380000   21.7380000  
N 11.3490000   15.6400000   21.9600000  
O  8.6550000   13.2250000   21.2620000  
C  9.9850000   13.5720000   21.2610000  
O 10.9060000   12.8400000   20.9650000  
O 12.1600000   20.3810000   22.4940000  
O  9.5360000   20.7200000   22.8730000  
H  8.1520000   18.5890000   22.7680000  
H  8.0680000   15.7010000   21.9470000  
H  8.1860000   13.9170000   21.6880000  
H 12.2530000   15.4410000   21.6910000  
H 13.0760000   19.9750000   22.5600000  
H 10.2160000   21.3630000   22.7030000  
C 13.4630000   17.7870000   22.0790000  
C 14.2250000   18.4370000   21.1340000  
C 15.5740000   18.1530000   20.9820000  
C 16.3140000   17.2840000   21.8030000  
C 15.5590000   16.7760000   22.9590000  
C 14.1730000   16.9810000   23.0150000  
C 13.9510000   19.3370000   20.0880000  
C 15.1270000   19.5610000   19.3600000  
N 16.1150000   18.7030000   19.8830000  
O 14.2740000   20.9480000   17.6620000  
C 15.4030000   20.4450000   18.2630000  
O 16.5560000   20.6180000   17.8290000  
O 16.1410000   16.1080000   24.0050000  
O 13.4860000   16.3340000   24.0370000  
H 12.9820000   19.8820000   19.9020000  
H 13.4840000   20.6340000   18.1170000  
H 17.1090000   18.6460000   19.6780000  
H 17.0890000   15.9720000   23.7560000  
H 14.0920000   15.7810000   24.4920000  
C 17.8400000   17.0070000   21.6930000  
C 18.7510000   17.4240000   22.6950000  
C 20.0710000   17.0750000   22.5870000  
C 20.6200000   16.4180000   21.4950000  
C 19.7320000   15.9690000   20.4670000  
C 18.3180000   16.2470000   20.5890000  
C 18.7530000   18.4270000   23.7310000  
C 20.0660000   18.6330000   24.1550000  
N 20.8810000   17.8410000   23.3710000  
O 19.5710000   20.2850000   25.7140000  
C 20.5180000   19.5940000   25.1490000  
O 21.6880000   19.7950000   25.4100000  
O 20.1680000   15.1640000   19.4250000  
O 17.4200000   15.7320000   19.7240000  
H 17.8900000   18.8400000   24.1820000  
H 18.7520000   19.9730000   25.4170000  
H 21.9130000   17.9780000   23.4210000  
H 19.6070000   15.2440000   18.6520000  
H 16.5580000   15.8390000   20.1370000  
C 22.0700000   16.1010000   21.3840000  
C 22.5810000   14.8420000   21.7720000  
C 23.8960000   14.5800000   21.8140000  
C 24.8240000   15.5790000   21.5480000  
C 24.3800000   16.8090000   21.0730000  
C 22.9630000   17.1110000   20.9780000  
C 21.9340000   13.6150000   22.1670000  
C 22.9210000   12.6660000   22.3880000  
N 24.1670000   13.3060000   22.2900000  
O 21.4580000   10.8080000   23.0690000  
C 22.7230000   11.2350000   22.8120000  
O 23.6520000   10.4880000   23.0250000  
O 25.3110000   17.7060000   20.7290000  
O 22.5430000   18.3530000   20.6390000  
H 20.8560000   13.3730000   22.1250000  
H 20.8930000   11.5750000   23.0670000  
H 25.0400000   12.8980000   22.5230000  
H 24.8790000   18.5550000   20.5990000  
H 21.6020000   18.3950000   20.6550000  
H 25.9130000   15.4130000   21.6770000  
