78
111 
C 11.7450000   19.0430000   26.3460000  
C 10.5480000   19.4030000   25.7120000  
C 10.3670000   19.0830000   24.3430000  
C 11.3840000   18.5490000   23.5690000  
C 12.6070000   18.2320000   24.0900000  
C 12.7930000   18.5870000   25.4740000  
C  9.3400000   19.3420000   23.4010000  
C  9.7490000   18.7840000   22.1480000  
N 11.0770000   18.5390000   22.2730000  
O  7.6440000   19.1550000   20.8550000  
C  8.9080000   18.6530000   20.9020000  
O  9.4170000   18.1540000   19.8900000  
O 13.9360000   18.1260000   26.1190000  
O 11.8880000   19.2400000   27.6890000  
H  9.6980000   19.9290000   26.2520000  
H  8.2940000   19.5590000   23.7380000  
H  7.6050000   19.8370000   21.5280000  
H 11.6130000   18.1720000   21.5010000  
H 14.3450000   17.5680000   25.5100000  
H 12.6730000   18.7190000   27.9150000  
C 13.7330000   17.7200000   23.2270000  
C 14.9300000   18.4160000   23.0980000  
C 16.0400000   17.9690000   22.4910000  
C 16.1280000   16.6920000   21.9270000  
C 14.9040000   15.9700000   21.9480000  
C 13.7550000   16.4700000   22.6110000  
C 15.3460000   19.7490000   23.5080000  
C 16.7340000   19.9240000   23.2420000  
N 17.1520000   18.7740000   22.4780000  
O 17.1200000   21.6770000   24.6120000  
C 17.5980000   20.9440000   23.6270000  
O 18.7240000   21.0800000   23.2200000  
O 14.8120000   14.7180000   21.4240000  
O 12.6870000   15.6510000   22.8080000  
H 14.7250000   20.5750000   23.9930000  
H 16.2990000   21.2250000   24.8580000  
H 18.0750000   18.5520000   22.1370000  
H 15.7530000   14.4720000   21.3300000  
H 12.7840000   14.9440000   22.1070000  
C 17.3710000   16.2360000   21.1950000  
C 18.5500000   16.1770000   21.8940000  
C 19.6860000   15.8920000   21.1700000  
C 19.7990000   15.7810000   19.7860000  
C 18.6240000   15.9130000   19.0230000  
C 17.4030000   16.1310000   19.7790000  
C 18.9350000   16.4970000   23.2250000  
C 20.3190000   16.3780000   23.2420000  
N 20.7850000   16.0160000   21.9470000  
O 20.5680000   17.0020000   25.5450000  
C 21.1790000   16.6220000   24.3910000  
O 22.3740000   16.4850000   24.3730000  
O 18.5830000   15.7470000   17.6850000  
O 16.2250000   16.2910000   19.1010000  
H 18.3140000   16.7130000   24.0390000  
H 19.6920000   16.6380000   25.4070000  
H 21.7480000   16.0150000   21.6750000  
H 17.7890000   16.1190000   17.2760000  
H 15.6740000   16.3530000   19.8810000  
C 21.1090000   15.5780000   19.1610000  
C 21.8150000   14.3300000   19.2940000  
C 23.0570000   14.1470000   18.7640000  
C 23.6300000   15.1400000   17.8970000  
C 22.9580000   16.3450000   17.6860000  
C 21.7350000   16.5510000   18.3980000  
C 21.4410000   13.1360000   20.0350000  
C 22.4530000   12.2250000   19.8330000  
N 23.5030000   12.8610000   19.0730000  
O 21.5030000   10.6340000   21.4090000  
C 22.5240000   10.9030000   20.5190000  
O 23.3160000   10.0800000   20.1490000  
O 23.5590000   17.3220000   16.9350000  
O 21.0840000   17.7520000   18.3970000  
H 20.5020000   13.0050000   20.6380000  
H 21.0060000   11.4770000   21.5790000  
H 24.3350000   12.3310000   18.8060000  
H 22.9330000   18.0650000   17.1390000  
H 20.2740000   17.6860000   18.9840000  
H 24.5330000   14.9280000   17.3240000  
