78
111 
C  9.9810000   18.0540000   20.3990000  
C  9.2570000   16.8510000   20.2610000  
C  9.9560000   15.6720000   20.4790000  
C 11.2740000   15.7130000   20.8030000  
C 12.0690000   16.8460000   20.7770000  
C 11.4040000   18.0910000   20.6550000  
C  9.4390000   14.3230000   20.4330000  
C 10.6650000   13.5530000   20.6040000  
N 11.7260000   14.4540000   20.7760000  
O  9.6640000   11.3120000   20.5500000  
C 10.7770000   12.0440000   20.5990000  
O 11.8320000   11.4870000   20.8610000  
O 12.0900000   19.2650000   20.8620000  
O  9.3670000   19.2320000   20.3390000  
H  8.2280000   16.8310000   20.0640000  
H  8.4570000   13.9750000   20.1590000  
H  8.8990000   11.9450000   20.6240000  
H 12.6640000   14.1980000   20.9760000  
H 12.9700000   19.1130000   21.1880000  
H 10.1440000   19.8130000   20.5270000  
C 13.5110000   16.7750000   21.0410000  
C 14.4100000   17.0420000   20.0030000  
C 15.7320000   16.9920000   20.2060000  
C 16.3590000   16.6450000   21.4000000  
C 15.4770000   16.4130000   22.5380000  
C 14.0670000   16.3800000   22.2560000  
C 14.2250000   17.3370000   18.6730000  
C 15.5050000   17.3970000   18.0800000  
N 16.4620000   17.1590000   19.0340000  
O 14.7360000   17.6200000   15.9570000  
C 15.8940000   17.5500000   16.7070000  
O 17.0370000   17.5640000   16.2900000  
O 15.9590000   16.0160000   23.7100000  
O 13.2470000   16.1990000   23.3770000  
H 13.2870000   17.3570000   18.1170000  
H 14.0900000   17.7790000   16.6420000  
H 17.4670000   17.2800000   18.9670000  
H 16.9280000   15.8640000   23.6430000  
H 13.8300000   16.1210000   24.1310000  
C 17.8280000   16.6350000   21.6520000  
C 18.4080000   17.5850000   22.5020000  
C 19.7680000   17.5830000   22.6490000  
C 20.6700000   16.7170000   22.0190000  
C 20.0790000   15.6780000   21.2200000  
C 18.6630000   15.5830000   21.0840000  
C 17.8210000   18.6110000   23.3730000  
C 18.9360000   19.1350000   24.0470000  
N 20.1140000   18.6430000   23.4850000  
O 17.5640000   20.3290000   25.5290000  
C 18.8180000   19.9640000   25.3140000  
O 19.7280000   20.2340000   26.0480000  
O 20.7780000   14.6000000   20.6820000  
O 18.0920000   14.6230000   20.3020000  
H 16.7870000   18.9630000   23.4560000  
H 17.0090000   19.8160000   24.9120000  
H 21.0720000   18.9010000   23.6690000  
H 20.1660000   13.8880000   21.0010000  
H 17.1940000   14.8470000   20.1870000  
C 22.1660000   16.8240000   22.3400000  
C 22.6590000   17.0500000   23.6180000  
C 23.9370000   17.5900000   23.8590000  
C 24.9160000   17.8200000   22.8810000  
C 24.4520000   17.5100000   21.5590000  
C 23.0900000   17.1630000   21.3030000  
C 22.0510000   16.8210000   24.9280000  
C 22.9250000   17.2970000   25.8810000  
N 24.1180000   17.6400000   25.2230000  
O 21.3990000   17.2560000   27.7270000  
C 22.6500000   17.5380000   27.2760000  
O 23.5530000   17.9130000   28.0230000  
O 25.2930000   17.7160000   20.5170000  
O 22.6980000   16.9640000   19.9880000  
H 21.0930000   16.3700000   25.1150000  
H 20.9430000   16.9490000   26.9680000  
H 24.9010000   17.9200000   25.7190000  
H 24.8610000   17.6790000   19.6630000  
H 21.9170000   16.3940000   19.9740000  
H 25.9230000   18.2350000   23.0720000  
