78
111 
C 21.9330000   11.2160000   19.9010000  
C 21.3420000   10.0260000   20.4120000  
C 20.1700000   10.1420000   21.1330000  
C 19.6370000   11.3730000   21.3460000  
C 20.0800000   12.5920000   20.8760000  
C 21.2920000   12.4500000   20.0940000  
C 19.2590000    9.1380000   21.6130000  
C 18.2150000    9.8410000   22.2020000  
N 18.3960000   11.2240000   21.9940000  
O 17.3110000    8.0280000   23.1580000  
C 17.1740000    9.3130000   23.0340000  
O 16.2970000    9.9830000   23.5750000  
O 21.7470000   13.5900000   19.4170000  
O 23.1090000   11.1860000   19.2570000  
H 21.7220000    9.0330000   20.0780000  
H 19.3370000    8.0490000   21.5240000  
H 18.0310000    7.7250000   22.5950000  
H 17.7960000   12.0250000   22.2430000  
H 21.0060000   14.3050000   19.4230000  
H 23.1040000   12.0300000   18.7880000  
C 19.2380000   13.8550000   21.0330000  
C 18.9620000   14.4470000   22.3040000  
C 18.0610000   15.4720000   22.3840000  
C 17.4160000   16.1230000   21.3060000  
C 17.7910000   15.5450000   20.0230000  
C 18.6760000   14.4360000   19.8950000  
C 19.0880000   13.9490000   23.6180000  
C 18.1180000   14.5600000   24.4050000  
N 17.5360000   15.5930000   23.6670000  
O 18.7690000   13.2850000   26.3350000  
C 17.8420000   14.2050000   25.8160000  
O 16.9920000   14.7480000   26.4990000  
O 17.5210000   16.2360000   18.9490000  
O 18.9870000   13.9480000   18.6850000  
H 19.7470000   13.1690000   23.9410000  
H 19.4000000   13.0760000   25.6540000  
H 16.8920000   16.2620000   23.9720000  
H 17.1030000   17.0760000   19.2200000  
H 18.4620000   14.6190000   18.1570000  
C 16.4410000   17.2890000   21.4360000  
C 16.7640000   18.4910000   22.0940000  
C 15.9250000   19.5860000   22.1440000  
C 14.6880000   19.6790000   21.5440000  
C 14.3500000   18.4870000   20.7950000  
C 15.2180000   17.3480000   20.7270000  
C 17.8230000   18.8320000   23.0290000  
C 17.5770000   20.1080000   23.6100000  
N 16.4210000   20.5820000   22.9720000  
O 19.2270000   20.1400000   25.3980000  
C 18.3140000   20.8360000   24.6520000  
O 18.0400000   21.9950000   24.8920000  
O 13.1490000   18.3520000   20.1970000  
O 14.7800000   16.2550000   20.1240000  
H 18.5650000   18.1390000   23.3670000  
H 19.4460000   19.2790000   24.9790000  
H 15.8010000   21.4440000   23.2000000  
H 12.9870000   17.4080000   19.8630000  
H 14.8690000   15.6040000   20.7440000  
C 13.8110000   20.8570000   21.7050000  
C 14.2800000   22.0890000   21.2430000  
C 13.5950000   23.2840000   21.4480000  
C 12.3550000   23.2820000   22.1390000  
C 11.7950000   22.0220000   22.5490000  
C 12.5640000   20.7910000   22.3820000  
C 15.5070000   22.4060000   20.5490000  
C 15.3910000   23.7100000   20.1440000  
N 14.2850000   24.2770000   20.8170000  
O 17.4740000   23.8690000   18.9530000  
C 16.3020000   24.5090000   19.2400000  
O 16.1120000   25.6640000   19.0170000  
O 10.5950000   21.9850000   23.2230000  
O 12.0830000   19.5410000   22.8360000  
H 16.2660000   21.7330000   20.2060000  
H 17.5290000   22.9690000   19.3730000  
H 14.0400000   25.2610000   20.6610000  
H 10.6180000   21.4060000   23.9620000  
H 12.8040000   18.9620000   22.4950000  
H 11.7990000   24.1000000   22.4380000  
