78
111 
C 10.4180000   17.7540000   25.3490000  
C  9.4970000   17.9820000   24.2980000  
C  9.9940000   18.0350000   22.9880000  
C 11.3260000   17.8220000   22.7870000  
C 12.2560000   17.4830000   23.8380000  
C 11.7840000   17.4600000   25.1590000  
C  9.3530000   18.0680000   21.6870000  
C 10.4330000   18.0170000   20.7820000  
N 11.5810000   17.6840000   21.4800000  
O  9.0510000   17.7540000   18.7720000  
C 10.2990000   17.9110000   19.3570000  
O 11.2540000   17.7350000   18.6560000  
O 12.5650000   17.2260000   26.2220000  
O  9.8520000   17.7740000   26.6420000  
H  8.4590000   18.0510000   24.5020000  
H  8.2380000   18.3120000   21.4070000  
H  8.4350000   17.5790000   19.5280000  
H 12.4960000   17.4900000   21.0950000  
H 13.5470000   17.4670000   26.0370000  
H 10.2740000   16.9820000   26.9930000  
C 13.7100000   17.2640000   23.5160000  
C 14.5580000   18.2920000   23.0230000  
C 15.7580000   17.9740000   22.5590000  
C 16.3830000   16.6930000   22.6950000  
C 15.6520000   15.7330000   23.3900000  
C 14.2600000   15.9700000   23.6960000  
C 14.3680000   19.7040000   22.7720000  
C 15.5810000   20.2070000   22.2340000  
N 16.4230000   19.0970000   22.0950000  
O 14.7860000   22.3450000   21.8900000  
C 15.9160000   21.6230000   21.9650000  
O 17.0320000   22.0060000   21.6710000  
O 16.1150000   14.4800000   23.7290000  
O 13.5710000   14.9240000   24.2410000  
H 13.5350000   20.3440000   22.9160000  
H 14.0340000   21.7980000   22.1690000  
H 17.3560000   19.1610000   21.7170000  
H 17.0580000   14.4520000   23.6430000  
H 14.3240000   14.3090000   24.3740000  
C 17.6670000   16.3540000   22.1020000  
C 18.8690000   17.0160000   22.5960000  
C 20.0400000   16.9890000   21.8960000  
C 20.2630000   16.1230000   20.7690000  
C 19.1010000   15.4860000   20.2550000  
C 17.8110000   15.6170000   20.9160000  
C 19.0470000   18.0190000   23.6750000  
C 20.3950000   18.3450000   23.7140000  
N 21.0170000   17.7040000   22.6290000  
O 20.4760000   19.2720000   25.9270000  
C 21.1520000   18.9360000   24.8240000  
O 22.3450000   18.9650000   24.8480000  
O 19.0770000   14.8730000   19.0700000  
O 16.7130000   14.9710000   20.4040000  
H 18.2770000   18.2720000   24.3100000  
H 19.5560000   19.0410000   25.7010000  
H 21.9760000   17.6100000   22.4550000  
H 18.1550000   14.6280000   18.9180000  
H 15.9350000   15.1030000   20.9740000  
C 21.6550000   15.8460000   20.1170000  
C 22.1200000   14.5200000   19.8720000  
C 23.3270000   14.2760000   19.3360000  
C 24.2320000   15.3120000   18.9560000  
C 23.8330000   16.6200000   19.1110000  
C 22.5230000   16.9050000   19.6650000  
C 21.5060000   13.2610000   20.0650000  
C 22.3790000   12.2770000   19.6360000  
N 23.5300000   12.9180000   19.2030000  
O 20.6870000   10.5850000   19.3560000  
C 22.0370000   10.8560000   19.3490000  
O 22.8990000   10.0340000   19.0120000  
O 24.6820000   17.6920000   18.7900000  
O 22.1630000   18.1950000   19.8240000  
H 20.4860000   13.1800000   20.3480000  
H 20.2460000   11.3670000   19.7790000  
H 24.3810000   12.4660000   19.0110000  
H 24.1000000   18.5040000   18.6640000  
H 21.2670000   18.2810000   20.2170000  
H 25.1850000   15.0830000   18.5020000  
