78
111 
C  9.9210000   18.9590000   21.9800000  
C  9.1630000   17.8040000   21.8560000  
C  9.7300000   16.5840000   21.6550000  
C 11.1010000   16.4700000   21.5630000  
C 12.0230000   17.5060000   21.7000000  
C 11.3920000   18.7640000   21.9540000  
C  9.2360000   15.2250000   21.6710000  
C 10.3380000   14.3220000   21.7190000  
N 11.4030000   15.1710000   21.6560000  
O  9.1000000   12.3340000   21.7930000  
C 10.3280000   12.8950000   21.7290000  
O 11.3140000   12.1990000   21.6440000  
O 12.2070000   19.8230000   22.0510000  
O  9.4100000   20.1870000   22.1430000  
H  8.0250000   17.8220000   22.0250000  
H  8.1980000   14.9140000   21.5640000  
H  8.5380000   13.0480000   21.6680000  
H 12.3570000   14.8160000   21.7050000  
H 13.1000000   19.5040000   21.8530000  
H 10.2380000   20.6820000   22.2710000  
C 13.5320000   17.2580000   21.5850000  
C 14.1740000   17.8930000   20.4730000  
C 15.5210000   17.6880000   20.3720000  
C 16.4180000   17.0590000   21.2270000  
C 15.7380000   16.4110000   22.2870000  
C 14.3300000   16.5540000   22.5050000  
C 13.7040000   18.6330000   19.3280000  
C 14.8160000   18.7750000   18.5470000  
N 15.9890000   18.2650000   19.2270000  
O 13.7660000   20.1940000   16.8060000  
C 14.8380000   19.4150000   17.2210000  
O 15.7900000   19.3620000   16.5010000  
O 16.5300000   15.7510000   23.1900000  
O 13.8220000   15.9500000   23.6830000  
H 12.6860000   18.9080000   18.9730000  
H 13.1670000   20.1330000   17.6090000  
H 16.9120000   18.2750000   18.9520000  
H 17.4440000   15.8490000   23.0950000  
H 14.6270000   15.9250000   24.2000000  
C 17.9330000   17.0340000   21.1560000  
C 18.6870000   17.8860000   21.9710000  
C 20.0430000   17.6350000   22.1620000  
C 20.7210000   16.5250000   21.5710000  
C 20.0100000   15.8400000   20.5480000  
C 18.5860000   16.0440000   20.3920000  
C 18.3250000   18.9150000   22.8680000  
C 19.5040000   19.2570000   23.5540000  
N 20.5300000   18.3480000   23.1890000  
O 18.6300000   21.0480000   24.7690000  
C 19.6460000   20.2560000   24.5660000  
O 20.6290000   20.3240000   25.3470000  
O 20.5570000   14.7800000   19.8290000  
O 17.7950000   15.2760000   19.5540000  
H 17.5250000   19.5890000   22.9580000  
H 17.9150000   20.5920000   24.2940000  
H 21.4230000   18.1980000   23.5620000  
H 19.8050000   14.2940000   19.2930000  
H 16.9720000   15.6760000   19.3210000  
C 22.2080000   16.3250000   21.8230000  
C 22.7980000   15.6840000   22.9110000  
C 24.1650000   15.5510000   23.0930000  
C 25.0800000   16.1990000   22.2470000  
C 24.5650000   16.9630000   21.2270000  
C 23.1530000   17.0220000   20.9900000  
C 22.1120000   15.0160000   23.9790000  
C 23.1220000   14.2930000   24.6240000  
N 24.3950000   14.6150000   24.0920000  
O 21.6300000   13.3550000   26.0580000  
C 22.9020000   13.3750000   25.7600000  
O 23.7160000   12.6860000   26.3460000  
O 25.4660000   17.4830000   20.3300000  
O 22.7110000   17.7630000   19.9520000  
H 21.0410000   15.0390000   24.2320000  
H 21.2390000   13.9330000   25.3120000  
H 25.2590000   14.2950000   24.5170000  
H 24.9750000   18.1210000   19.7600000  
H 21.8140000   17.4530000   19.7820000  
H 26.1580000   16.1150000   22.3250000  
