78
111 
C 12.1130000   17.2780000   27.0890000  
C 12.1200000   18.5110000   27.7440000  
C 12.6560000   19.6010000   27.0880000  
C 13.3000000   19.4840000   25.8490000  
C 13.3770000   18.2570000   25.1420000  
C 12.7980000   17.1280000   25.7960000  
C 12.8460000   20.9650000   27.5850000  
C 13.6910000   21.5910000   26.6140000  
N 13.9730000   20.6410000   25.5650000  
O 13.8290000   23.5810000   27.7670000  
C 14.1100000   22.9780000   26.6010000  
O 14.7160000   23.5360000   25.6550000  
O 12.8270000   15.8520000   25.2740000  
O 11.4610000   16.2250000   27.6800000  
H 11.8420000   18.5750000   28.7810000  
H 12.4490000   21.5000000   28.4860000  
H 13.7540000   22.9100000   28.4750000  
H 14.6880000   20.8200000   24.8240000  
H 13.2810000   15.8420000   24.3810000  
H 11.5010000   15.4230000   27.1230000  
C 14.2820000   18.0530000   23.9780000  
C 15.6750000   18.3490000   24.0400000  
C 16.5010000   17.9740000   22.9710000  
C 16.0980000   17.3970000   21.7760000  
C 14.7180000   17.1500000   21.6970000  
C 13.8630000   17.3660000   22.8230000  
C 16.5830000   18.7870000   25.0790000  
C 17.9000000   18.8130000   24.6120000  
N 17.8290000   18.2880000   23.3310000  
O 18.7610000   20.1260000   26.4600000  
C 19.0700000   19.4280000   25.3640000  
O 20.2130000   19.4280000   24.9740000  
O 14.1960000   16.6980000   20.5340000  
O 12.5240000   17.1680000   22.6700000  
H 16.2130000   18.9530000   26.0600000  
H 17.8930000   19.8120000   26.8190000  
H 18.6740000   18.0330000   22.8380000  
H 14.9050000   16.5220000   19.9540000  
H 12.3990000   16.6720000   21.8620000  
C 17.0520000   16.9810000   20.7190000  
C 17.8650000   15.8390000   20.9050000  
C 18.6820000   15.4260000   19.9260000  
C 18.8560000   16.0530000   18.6670000  
C 18.0620000   17.1880000   18.4510000  
C 17.1530000   17.6240000   19.4240000  
C 18.0600000   14.9190000   22.0170000  
C 18.8430000   13.8730000   21.6050000  
N 19.2870000   14.2590000   20.3080000  
O 18.4070000   12.4780000   23.4030000  
C 19.1170000   12.5760000   22.2820000  
O 19.9330000   11.7570000   21.9460000  
O 18.2840000   17.9640000   17.3090000  
O 16.4420000   18.7820000   19.1860000  
H 17.5840000   14.8830000   23.0290000  
H 17.9320000   13.2690000   23.3920000  
H 20.1660000   13.9460000   19.8380000  
H 17.4990000   18.5070000   17.1650000  
H 16.4640000   19.4030000   19.9630000  
C 19.9690000   15.6730000   17.8060000  
C 19.9710000   14.3910000   17.1910000  
C 21.1170000   13.9460000   16.5640000  
C 22.2440000   14.7030000   16.4940000  
C 22.2280000   16.0610000   16.9150000  
C 21.1130000   16.5150000   17.7050000  
C 18.9810000   13.4240000   17.1030000  
C 19.5240000   12.4190000   16.3020000  
N 20.8190000   12.7900000   15.9600000  
O 17.7940000   10.7310000   16.5110000  
C 18.9820000   11.1020000   16.0130000  
O 19.6560000   10.2170000   15.4340000  
O 23.3260000   16.8610000   16.7290000  
O 21.2360000   17.7010000   18.3910000  
H 18.0350000   13.3880000   17.5830000  
H 17.4220000   11.5110000   16.9840000  
H 21.3730000   12.2430000   15.3710000  
H 23.1280000   17.7210000   17.2390000  
H 20.3880000   17.9430000   18.8160000  
H 23.0880000   14.3690000   15.9460000  
