78
111 
C  9.4680000   18.1840000   21.8220000  
C  8.7580000   16.9670000   21.5130000  
C  9.5920000   15.8880000   21.2150000  
C 10.9620000   15.9590000   21.2700000  
C 11.7350000   17.1090000   21.5180000  
C 10.9040000   18.2090000   21.8860000  
C  9.3790000   14.4730000   20.9720000  
C 10.5910000   13.8620000   20.7280000  
N 11.5870000   14.7840000   20.9590000  
O  9.8730000   11.7540000   19.8540000  
C 10.9240000   12.4920000   20.2440000  
O 12.0540000   12.0940000   20.0440000  
O 11.5590000   19.3940000   22.1370000  
O  8.7940000   19.3400000   21.9340000  
H  7.6900000   16.8490000   21.4780000  
H  8.4640000   13.9090000   20.8750000  
H  9.0730000   12.3320000   19.8390000  
H 12.5580000   14.5590000   20.9390000  
H 12.2970000   19.2880000   21.6090000  
H  9.4110000   20.0710000   22.0710000  
C 13.2630000   17.1250000   21.6780000  
C 14.0970000   17.7410000   20.7930000  
C 15.4950000   17.7190000   20.8800000  
C 16.1970000   16.9320000   21.8300000  
C 15.3130000   16.2870000   22.7350000  
C 13.8740000   16.4300000   22.7910000  
C 13.8510000   18.5520000   19.6630000  
C 15.0440000   18.9600000   19.0760000  
N 16.0680000   18.3990000   19.8220000  
O 14.2350000   20.0440000   17.1030000  
C 15.3400000   19.8290000   17.8620000  
O 16.4610000   20.2290000   17.5100000  
O 15.8540000   15.5070000   23.7290000  
O 13.1690000   15.8560000   23.8120000  
H 12.8670000   18.7840000   19.2590000  
H 13.5900000   19.4690000   17.4820000  
H 17.0830000   18.5340000   19.5230000  
H 16.7970000   15.8330000   23.8250000  
H 13.7850000   15.2980000   24.3290000  
C 17.7160000   16.8690000   21.8490000  
C 18.5390000   17.9950000   22.0890000  
C 19.8820000   17.9410000   22.1210000  
C 20.6130000   16.7870000   22.0090000  
C 19.8080000   15.5700000   21.8390000  
C 18.3770000   15.6080000   21.7720000  
C 18.1930000   19.3560000   22.5380000  
C 19.4200000   19.9880000   22.9280000  
N 20.4880000   19.0740000   22.6790000  
O 18.5000000   21.9970000   23.7660000  
C 19.6010000   21.3270000   23.4640000  
O 20.7090000   21.8070000   23.5280000  
O 20.4570000   14.3830000   21.8240000  
O 17.6500000   14.4090000   21.4850000  
H 17.1970000   19.7790000   22.7990000  
H 17.8170000   21.3330000   23.6600000  
H 21.4540000   19.1990000   22.9620000  
H 19.7500000   13.7480000   21.4950000  
H 16.7570000   14.6540000   21.6710000  
C 22.1150000   16.6850000   22.1440000  
C 22.8820000   15.9060000   23.0600000  
C 24.2410000   15.9430000   23.1450000  
C 25.0470000   16.7170000   22.3110000  
C 24.3930000   17.4230000   21.2310000  
C 22.9640000   17.5200000   21.2550000  
C 22.4510000   14.9910000   24.1230000  
C 23.5910000   14.3340000   24.5940000  
N 24.7080000   15.0470000   24.0730000  
O 22.4240000   12.6640000   25.8350000  
C 23.6130000   13.2280000   25.5510000  
O 24.6380000   12.9170000   26.0820000  
O 25.1750000   18.1460000   20.3010000  
O 22.3760000   18.2210000   20.2400000  
H 21.3890000   14.7940000   24.4180000  
H 21.8070000   13.2180000   25.4090000  
H 25.6410000   14.8240000   24.3360000  
H 24.7460000   18.9960000   20.2290000  
H 21.4910000   17.8860000   20.1880000  
H 26.1170000   16.8050000   22.4720000  
