78
111 
C 13.3930000   18.0530000   28.0530000  
C 12.9580000   19.3590000   28.1990000  
C 13.2290000   20.2270000   27.2030000  
C 13.9310000   19.9020000   26.1030000  
C 14.4260000   18.6300000   25.8150000  
C 14.0670000   17.6740000   26.8130000  
C 12.7900000   21.6120000   27.0010000  
C 13.3210000   22.0350000   25.7160000  
N 14.0310000   20.9630000   25.2440000  
O 11.9630000   24.0870000   25.7890000  
C 12.7270000   23.2200000   24.9960000  
O 13.0740000   23.3850000   23.8510000  
O 14.5280000   16.3710000   26.7240000  
O 13.1990000   17.1390000   29.0520000  
H 12.3500000   19.6390000   29.0730000  
H 12.1850000   22.1560000   27.6780000  
H 11.8770000   23.5890000   26.6590000  
H 14.3700000   20.9850000   24.2950000  
H 14.7380000   16.2180000   25.7760000  
H 13.8120000   16.4150000   28.9700000  
C 15.2710000   18.2680000   24.7180000  
C 16.5330000   17.6200000   24.9250000  
C 17.2970000   17.1850000   23.8700000  
C 16.8910000   17.2640000   22.5120000  
C 15.6480000   17.8590000   22.2670000  
C 14.8960000   18.4080000   23.3410000  
C 17.2490000   17.2400000   26.1060000  
C 18.3410000   16.4200000   25.6820000  
N 18.4590000   16.5480000   24.3390000  
O 19.3060000   15.9910000   27.8790000  
C 19.4430000   15.8140000   26.5560000  
O 20.3520000   15.1480000   26.1580000  
O 15.0970000   17.9770000   21.0100000  
O 13.6650000   18.8940000   23.0160000  
H 16.9590000   17.5190000   27.1180000  
H 18.4090000   16.3860000   27.9640000  
H 19.0560000   15.9840000   23.7040000  
H 15.4500000   17.2420000   20.4320000  
H 13.7460000   19.0270000   22.0310000  
C 17.7890000   16.8570000   21.3190000  
C 17.8730000   15.5150000   20.9680000  
C 18.5810000   15.2210000   19.8790000  
C 19.2190000   16.1570000   19.0610000  
C 19.0140000   17.5680000   19.2960000  
C 18.3360000   17.8980000   20.4930000  
C 17.3200000   14.2420000   21.3570000  
C 17.8290000   13.2460000   20.5310000  
N 18.6140000   13.8760000   19.5650000  
O 16.7240000   11.5050000   21.6160000  
C 17.5270000   11.7810000   20.6090000  
O 17.8880000   10.9100000   19.8160000  
O 19.6430000   18.5370000   18.5360000  
O 18.2360000   19.1710000   20.9440000  
H 16.6510000   14.1330000   22.1360000  
H 16.4910000   12.3540000   21.9830000  
H 19.0520000   13.4230000   18.8290000  
H 19.4410000   19.4080000   18.9790000  
H 17.8210000   19.1350000   21.8660000  
C 20.0880000   15.7380000   17.8900000  
C 19.4520000   15.0440000   16.8750000  
C 20.1250000   14.6400000   15.7690000  
C 21.5070000   14.9120000   15.6290000  
C 22.1810000   15.5370000   16.6450000  
C 21.4650000   15.8930000   17.8710000  
C 18.0790000   14.7100000   16.5700000  
C 18.0080000   14.1680000   15.2950000  
N 19.3190000   14.0350000   14.7940000  
O 15.6680000   13.6620000   15.5080000  
C 16.7720000   13.6560000   14.6880000  
O 16.7410000   13.1740000   13.5600000  
O 23.5010000   15.8220000   16.4840000  
O 22.1580000   16.4290000   18.9370000  
H 17.2490000   15.0410000   17.1790000  
H 15.8970000   13.7950000   16.4320000  
H 19.6310000   13.6670000   13.8970000  
H 23.6480000   16.6430000   16.9740000  
H 21.7390000   16.1360000   19.7460000  
H 21.9890000   14.5660000   14.7350000  
