78
111 
C 10.7800000   18.6860000   24.9350000  
C  9.6160000   18.5300000   24.1300000  
C  9.7900000   17.8370000   22.8980000  
C 11.0330000   17.4890000   22.4880000  
C 12.2230000   17.6010000   23.2150000  
C 12.0180000   18.2560000   24.4820000  
C  8.8810000   17.4830000   21.8570000  
C  9.6870000   16.9470000   20.8500000  
N 10.9640000   16.8140000   21.3490000  
O  7.9400000   16.6870000   19.2610000  
C  9.2720000   16.4820000   19.4960000  
O 10.0590000   16.0620000   18.6550000  
O 13.1530000   18.6160000   25.2680000  
O 10.6240000   19.3050000   26.1340000  
H  8.6600000   18.9680000   24.4330000  
H  7.8550000   17.8170000   21.6550000  
H  7.5770000   16.8330000   20.1740000  
H 11.7220000   16.3150000   20.9870000  
H 14.0030000   18.2200000   24.8490000  
H 11.4070000   19.2070000   26.7090000  
C 13.5420000   17.1270000   22.7560000  
C 14.1170000   17.8460000   21.7470000  
C 15.4260000   17.6150000   21.3130000  
C 16.2190000   16.6160000   21.7900000  
C 15.6310000   15.9180000   22.9030000  
C 14.3550000   16.2180000   23.4130000  
C 13.6650000   18.9720000   20.9700000  
C 14.7450000   19.4490000   20.2050000  
N 15.8680000   18.5800000   20.4040000  
O 13.6960000   21.4830000   19.5490000  
C 14.8210000   20.7000000   19.4030000  
O 15.7640000   21.0130000   18.7390000  
O 16.3150000   14.9790000   23.5680000  
O 13.9800000   15.5510000   24.5640000  
H 12.7080000   19.4640000   21.1200000  
H 13.0790000   21.0470000   20.1810000  
H 16.7150000   18.4610000   19.9420000  
H 17.1850000   14.8380000   23.2240000  
H 14.7140000   15.0720000   25.0050000  
C 17.6240000   16.3760000   21.3810000  
C 18.6000000   16.5740000   22.3960000  
C 19.9230000   16.5640000   22.0020000  
C 20.4560000   16.1060000   20.7840000  
C 19.4440000   15.7080000   19.8320000  
C 18.0540000   15.9750000   20.0970000  
C 18.5230000   17.1070000   23.7330000  
C 19.8190000   17.1030000   24.1490000  
N 20.7500000   16.8090000   23.0480000  
O 19.5840000   18.0110000   26.3510000  
C 20.4040000   17.4680000   25.4550000  
O 21.5950000   17.4410000   25.7250000  
O 19.7650000   15.3690000   18.5690000  
O 17.0920000   15.6410000   19.1670000  
H 17.7030000   17.3670000   24.3060000  
H 18.7370000   18.1770000   25.9360000  
H 21.7170000   16.6490000   23.2160000  
H 18.9710000   15.2960000   17.9800000  
H 16.2370000   15.4740000   19.6400000  
C 21.9280000   16.1840000   20.4350000  
C 22.8210000   15.3160000   21.1040000  
C 24.1540000   15.4530000   21.0430000  
C 24.7280000   16.4020000   20.1650000  
C 23.8830000   17.2180000   19.4170000  
C 22.4720000   17.0920000   19.5130000  
C 22.5240000   14.1370000   21.8190000  
C 23.7480000   13.6150000   22.2910000  
N 24.7660000   14.5090000   21.9100000  
O 22.9230000   11.4700000   22.9810000  
C 23.9940000   12.2610000   22.8700000  
O 25.1240000   11.8720000   23.1870000  
O 24.4730000   18.1250000   18.6040000  
O 21.6980000   17.9000000   18.8150000  
H 21.5750000   13.6660000   21.9630000  
H 22.2100000   12.1050000   22.7570000  
H 25.7790000   14.4020000   22.0760000  
H 23.7350000   18.3890000   17.9950000  
H 20.7640000   17.6170000   18.7910000  
H 25.8240000   16.5280000   20.0790000  
