78
111 
C 10.0420000   18.8550000   22.9640000  
C  9.0970000   17.8580000   22.5390000  
C  9.5420000   16.6830000   21.9560000  
C 10.9230000   16.4410000   21.9730000  
C 11.9240000   17.3400000   22.4360000  
C 11.4290000   18.5160000   22.9720000  
C  8.9620000   15.5660000   21.1530000  
C 10.0040000   14.7730000   20.6330000  
N 11.2570000   15.2570000   21.1770000  
O  8.5400000   13.5290000   19.2620000  
C  9.8040000   13.5690000   19.7560000  
O 10.6840000   12.7930000   19.3210000  
O 12.3170000   19.4060000   23.6080000  
O  9.6340000   19.9840000   23.6190000  
H  7.9920000   17.9860000   22.5720000  
H  7.9490000   15.4430000   20.9050000  
H  8.1850000   14.1950000   19.9240000  
H 12.1780000   15.0090000   20.8380000  
H 12.9720000   18.8710000   24.1470000  
H 10.4550000   20.5000000   23.7040000  
C 13.3830000   17.0630000   22.2430000  
C 14.1860000   17.9290000   21.4480000  
C 15.5220000   17.8120000   21.4800000  
C 16.2780000   16.7580000   22.0690000  
C 15.5150000   15.9590000   23.0130000  
C 14.1370000   16.1610000   23.0800000  
C 13.9150000   19.0520000   20.5710000  
C 15.1570000   19.4460000   20.0270000  
N 16.1120000   18.6350000   20.5720000  
O 14.2550000   21.2980000   18.9010000  
C 15.3560000   20.5190000   19.0560000  
O 16.4500000   20.6760000   18.5260000  
O 16.1650000   15.1540000   23.8800000  
O 13.5490000   15.4190000   24.0300000  
H 12.9540000   19.4840000   20.3440000  
H 13.6100000   20.8630000   19.4910000  
H 17.1190000   18.6540000   20.2940000  
H 17.1150000   15.2490000   23.7090000  
H 14.1920000   14.9730000   24.6310000  
C 17.7170000   16.7220000   21.8150000  
C 18.6390000   17.5840000   22.4740000  
C 19.9900000   17.4320000   22.2340000  
C 20.5830000   16.6580000   21.2210000  
C 19.6600000   15.8280000   20.5580000  
C 18.2910000   15.8530000   20.8330000  
C 18.5680000   18.5950000   23.5430000  
C 19.8520000   19.0230000   23.8330000  
N 20.7010000   18.3500000   23.0360000  
O 19.3360000   20.3900000   25.7830000  
C 20.2530000   19.8610000   24.9830000  
O 21.3650000   20.2970000   25.0890000  
O 20.1850000   14.8360000   19.7960000  
O 17.4300000   15.0360000   20.1760000  
H 17.6620000   18.9170000   24.0610000  
H 18.5070000   20.0890000   25.4190000  
H 21.6980000   18.3460000   23.0710000  
H 19.5390000   14.1070000   19.5360000  
H 16.5610000   15.0970000   20.6360000  
C 22.0540000   16.5180000   21.0590000  
C 22.8070000   15.7330000   21.9340000  
C 24.1780000   15.5110000   21.7480000  
C 24.8190000   15.9740000   20.6440000  
C 24.1190000   16.7660000   19.7230000  
C 22.7520000   17.0740000   19.9740000  
C 22.4620000   14.9300000   23.1140000  
C 23.5590000   14.1270000   23.4000000  
N 24.6790000   14.6430000   22.7420000  
O 22.2900000   12.5390000   24.7660000  
C 23.4660000   12.8860000   24.2310000  
O 24.3950000   12.1650000   24.4920000  
O 24.7460000   17.3800000   18.6770000  
O 22.1090000   17.8170000   19.0660000  
H 21.4670000   14.8030000   23.5400000  
H 21.5640000   12.9440000   24.3060000  
H 25.5930000   14.1490000   22.6960000  
H 24.0420000   17.9500000   18.2890000  
H 21.1470000   17.6840000   19.1110000  
H 25.8640000   15.7570000   20.4720000  
