78
tetramer_010.pdb
C          0.87600       -0.95300       30.13200
C          0.45600        0.17700       30.78700
C          0.16400        1.32000       30.01400
C          0.34300        1.27700       28.61400
C          0.70700        0.10300       27.90500
C          0.98600       -0.99700       28.70700
C         -0.37700        2.60300       30.32700
C         -0.49600        3.28600       29.13400
N         -0.00100        2.50600       28.12200
O         -1.52200        5.37500       29.70100
C         -1.30300        4.45100       28.75600
O         -1.79600        4.57700       27.65100
O          1.31800       -2.22700       28.23400
O          1.17300       -2.08000       30.82300
H          0.35000        0.16800       31.86600
H         -0.71400        2.93200       31.30100
H         -0.97300        5.18400       30.47500
H         -0.08100        2.75900       27.15100
H          1.89400       -2.12100       27.44900
H          1.44000       -2.74100       30.16500
C          0.67600        0.07700       26.42200
C          1.30600        1.10200       25.66000
C          1.44600        0.96500       24.26300
C          0.78300       -0.02500       23.49600
C          0.11200       -0.97200       24.25600
C          0.10700       -0.93900       25.67900
C          1.93100        2.34400       26.01200
C          2.48800        2.84700       24.86700
N          2.23100        1.99800       23.82700
O          3.90500        4.64100       25.54700
C          3.11200        4.15600       24.60000
O          2.89200        4.77200       23.57200
O         -0.62100       -1.99900       23.74500
O         -0.51600       -1.99000       26.30300
H          1.93300        2.82700       26.97700
H          4.14500        3.95700       26.20700
H          2.44700        2.21400       22.86700
H         -0.18100       -2.33400       22.93600
H         -0.84600       -2.56600       25.59100
C          0.77200        0.05700       22.01600
C          1.23500       -1.03500       21.22500
C          1.00200       -1.05000       19.83400
C          0.55300        0.07300       19.09500
C          0.19400        1.15900       19.88100
C          0.25700        1.12100       21.30200
C          1.88900       -2.27100       21.54400
C          1.93500       -3.00400       20.38900
N          1.36900       -2.28500       19.37200
O          2.53700       -5.22600       21.01500
C          2.60300       -4.28400       20.08500
O          3.20200       -4.45500       19.03700
O         -0.23300        2.35900       19.40200
O         -0.23700        2.22200       21.95400
H          2.29800       -2.57200       22.49600
H          1.85700       -5.03200       21.69500
H          1.39200       -2.57600       18.40800
H         -0.79400        2.20500       18.61100
H         -0.52800        2.83700       21.25600
C          0.55900        0.04600       17.61300
C         -0.02000       -1.04600       16.90300
C         -0.23700       -0.94900       15.51300
C          0.31500        0.06900       14.69500
C          0.95700        1.07600       15.40200
C          1.02400        1.08000       16.82400
C         -0.54600       -2.31500       17.31200
C         -1.13100       -2.87500       16.20800
N         -0.97600       -2.03800       15.13800
O         -2.44000       -4.71100       16.98900
C         -1.70700       -4.21900       16.00000
O         -1.50000       -4.84800       14.97800
O          1.59200        2.14000       14.83800
O          1.58200        2.19500       17.39400
H         -0.47600       -2.77400       18.28600
H         -2.69600       -4.02500       17.64300
H         -1.22900       -2.28900       14.19600
H          1.08400        2.43300       14.05100
H          1.84300        2.77200       16.65300
H          0.24300        0.06100       13.61400
